ULAU15/linecode.dss
New linecode.0_1_1_1 nphases=1 basefreq=60.0 units=km r1=0.15 x1=0.089 normamps=290.0
New linecode.0_1_1_2 nphases=2 basefreq=60.0 units=km r1=0.15 x1=0.089 normamps=290.0
New linecode.0_1_1_3 nphases=3 basefreq=60.0 units=km r1=0.15 x1=0.089 normamps=290.0
New linecode.0_1_1_4 nphases=4 basefreq=60.0 units=km r1=0.15 x1=0.089 normamps=290.0

New linecode.0_1_1 nphases=1 basefreq=60.0 units=km r1=0.15 x1=0.089 normamps=290.0
New linecode.0_1_2 nphases=2 basefreq=60.0 units=km r1=0.15 x1=0.089 normamps=290.0
New linecode.0_1_3 nphases=3 basefreq=60.0 units=km r1=0.15 x1=0.089 normamps=290.0
New linecode.0_1_4 nphases=4 basefreq=60.0 units=km r1=0.15 x1=0.089 normamps=290.0

New linecode.0_2_1 nphases=1 basefreq=60.0 units=km r1=0.15 x1=0.089 normamps=290.0
New linecode.0_2_2 nphases=2 basefreq=60.0 units=km r1=0.15 x1=0.089 normamps=290.0
New linecode.0_2_3 nphases=3 basefreq=60.0 units=km r1=0.15 x1=0.089 normamps=290.0
New linecode.0_2_4 nphases=4 basefreq=60.0 units=km r1=0.15 x1=0.089 normamps=290.0

New linecode.0_3_1 nphases=1 basefreq=60.0 units=km r1=0.15 x1=0.089 normamps=290.0
New linecode.0_3_2 nphases=2 basefreq=60.0 units=km r1=0.15 x1=0.089 normamps=290.0
New linecode.0_3_3 nphases=3 basefreq=60.0 units=km r1=0.15 x1=0.089 normamps=290.0
New linecode.0_3_4 nphases=4 basefreq=60.0 units=km r1=0.15 x1=0.089 normamps=290.0

New linecode.0_4_1 nphases=1 basefreq=60.0 units=km r1=0.15 x1=0.089 normamps=290.0
New linecode.0_4_2 nphases=2 basefreq=60.0 units=km r1=0.15 x1=0.089 normamps=290.0
New linecode.0_4_3 nphases=3 basefreq=60.0 units=km r1=0.15 x1=0.089 normamps=290.0
New linecode.0_4_4 nphases=4 basefreq=60.0 units=km r1=0.15 x1=0.089 normamps=290.0

New linecode.0_5_1 nphases=1 basefreq=60.0 units=km r1=0.15 x1=0.089 normamps=290.0
New linecode.0_5_2 nphases=2 basefreq=60.0 units=km r1=0.15 x1=0.089 normamps=290.0
New linecode.0_5_3 nphases=3 basefreq=60.0 units=km r1=0.15 x1=0.089 normamps=290.0
New linecode.0_5_4 nphases=4 basefreq=60.0 units=km r1=0.15 x1=0.089 normamps=290.0

New linecode.1061_1 nphases=1 basefreq=60.0 units=km r1=0.15 x1=0.089 normamps=290.0
New linecode.1061_2 nphases=2 basefreq=60.0 units=km r1=0.15 x1=0.089 normamps=290.0
New linecode.1061_3 nphases=3 basefreq=60.0 units=km r1=0.15 x1=0.089 normamps=290.0
New linecode.1061_4 nphases=4 basefreq=60.0 units=km r1=0.15 x1=0.089 normamps=290.0

New linecode.109_1 nphases=1 basefreq=60.0 units=km r1=0.15 x1=0.089 normamps=290.0
New linecode.109_2 nphases=2 basefreq=60.0 units=km r1=0.15 x1=0.089 normamps=290.0
New linecode.109_3 nphases=3 basefreq=60.0 units=km r1=0.15 x1=0.089 normamps=290.0
New linecode.109_4 nphases=4 basefreq=60.0 units=km r1=0.15 x1=0.089 normamps=290.0

New linecode.110_1 nphases=1 basefreq=60.0 units=km r1=0.15 x1=0.089 normamps=290.0
New linecode.110_2 nphases=2 basefreq=60.0 units=km r1=0.15 x1=0.089 normamps=290.0
New linecode.110_3 nphases=3 basefreq=60.0 units=km r1=0.15 x1=0.089 normamps=290.0
New linecode.110_4 nphases=4 basefreq=60.0 units=km r1=0.15 x1=0.089 normamps=290.0

New linecode.112_1 nphases=1 basefreq=60.0 units=km r1=0.15 x1=0.089 normamps=290.0
New linecode.112_2 nphases=2 basefreq=60.0 units=km r1=0.15 x1=0.089 normamps=290.0
New linecode.112_3 nphases=3 basefreq=60.0 units=km r1=0.15 x1=0.089 normamps=290.0
New linecode.112_4 nphases=4 basefreq=60.0 units=km r1=0.15 x1=0.089 normamps=290.0

New linecode.1129_1 nphases=1 basefreq=60.0 units=km r1=0.15 x1=0.089 normamps=290.0
New linecode.1129_2 nphases=2 basefreq=60.0 units=km r1=0.15 x1=0.089 normamps=290.0
New linecode.1129_3 nphases=3 basefreq=60.0 units=km r1=0.15 x1=0.089 normamps=290.0
New linecode.1129_4 nphases=4 basefreq=60.0 units=km r1=0.15 x1=0.089 normamps=290.0

New linecode.118_1 nphases=1 basefreq=60.0 units=km r1=0.15 x1=0.089 normamps=290.0
New linecode.118_2 nphases=2 basefreq=60.0 units=km r1=0.15 x1=0.089 normamps=290.0
New linecode.118_3 nphases=3 basefreq=60.0 units=km r1=0.15 x1=0.089 normamps=290.0
New linecode.118_4 nphases=4 basefreq=60.0 units=km r1=0.15 x1=0.089 normamps=290.0

New linecode.121_1 nphases=1 basefreq=60.0 units=km r1=0.15 x1=0.089 normamps=290.0
New linecode.121_2 nphases=2 basefreq=60.0 units=km r1=0.15 x1=0.089 normamps=290.0
New linecode.121_3 nphases=3 basefreq=60.0 units=km r1=0.15 x1=0.089 normamps=290.0
New linecode.121_4 nphases=4 basefreq=60.0 units=km r1=0.15 x1=0.089 normamps=290.0

New linecode.122_1 nphases=1 basefreq=60.0 units=km r1=0.15 x1=0.089 normamps=290.0
New linecode.122_2 nphases=2 basefreq=60.0 units=km r1=0.15 x1=0.089 normamps=290.0
New linecode.122_3 nphases=3 basefreq=60.0 units=km r1=0.15 x1=0.089 normamps=290.0
New linecode.122_4 nphases=4 basefreq=60.0 units=km r1=0.15 x1=0.089 normamps=290.0

New linecode.123_1 nphases=1 basefreq=60.0 units=km r1=0.15 x1=0.089 normamps=290.0
New linecode.123_2 nphases=2 basefreq=60.0 units=km r1=0.15 x1=0.089 normamps=290.0
New linecode.123_3 nphases=3 basefreq=60.0 units=km r1=0.15 x1=0.089 normamps=290.0
New linecode.123_4 nphases=4 basefreq=60.0 units=km r1=0.15 x1=0.089 normamps=290.0

New linecode.124_1 nphases=1 basefreq=60.0 units=km r1=0.15 x1=0.089 normamps=290.0
New linecode.124_2 nphases=2 basefreq=60.0 units=km r1=0.15 x1=0.089 normamps=290.0
New linecode.124_3 nphases=3 basefreq=60.0 units=km r1=0.15 x1=0.089 normamps=290.0
New linecode.124_4 nphases=4 basefreq=60.0 units=km r1=0.15 x1=0.089 normamps=290.0

New linecode.128_1 nphases=1 basefreq=60.0 units=km r1=0.15 x1=0.089 normamps=290.0
New linecode.128_2 nphases=2 basefreq=60.0 units=km r1=0.15 x1=0.089 normamps=290.0
New linecode.128_3 nphases=3 basefreq=60.0 units=km r1=0.15 x1=0.089 normamps=290.0
New linecode.128_4 nphases=4 basefreq=60.0 units=km r1=0.15 x1=0.089 normamps=290.0

New linecode.1283_1 nphases=1 basefreq=60.0 units=km r1=0.15 x1=0.089 normamps=290.0
New linecode.1283_2 nphases=2 basefreq=60.0 units=km r1=0.15 x1=0.089 normamps=290.0
New linecode.1283_3 nphases=3 basefreq=60.0 units=km r1=0.15 x1=0.089 normamps=290.0
New linecode.1283_4 nphases=4 basefreq=60.0 units=km r1=0.15 x1=0.089 normamps=290.0

New linecode.131_1 nphases=1 basefreq=60.0 units=km r1=0.15 x1=0.089 normamps=290.0
New linecode.131_2 nphases=2 basefreq=60.0 units=km r1=0.15 x1=0.089 normamps=290.0
New linecode.131_3 nphases=3 basefreq=60.0 units=km r1=0.15 x1=0.089 normamps=290.0
New linecode.131_4 nphases=4 basefreq=60.0 units=km r1=0.15 x1=0.089 normamps=290.0

New linecode.133_1 nphases=1 basefreq=60.0 units=km r1=0.15 x1=0.089 normamps=290.0
New linecode.133_2 nphases=2 basefreq=60.0 units=km r1=0.15 x1=0.089 normamps=290.0
New linecode.133_3 nphases=3 basefreq=60.0 units=km r1=0.15 x1=0.089 normamps=290.0
New linecode.133_4 nphases=4 basefreq=60.0 units=km r1=0.15 x1=0.089 normamps=290.0

New linecode.152_1 nphases=1 basefreq=60.0 units=km r1=0.15 x1=0.089 normamps=290.0
New linecode.152_2 nphases=2 basefreq=60.0 units=km r1=0.15 x1=0.089 normamps=290.0
New linecode.152_3 nphases=3 basefreq=60.0 units=km r1=0.15 x1=0.089 normamps=290.0
New linecode.152_4 nphases=4 basefreq=60.0 units=km r1=0.15 x1=0.089 normamps=290.0

New linecode.153_1 nphases=1 basefreq=60.0 units=km r1=0.15 x1=0.089 normamps=290.0
New linecode.153_2 nphases=2 basefreq=60.0 units=km r1=0.15 x1=0.089 normamps=290.0
New linecode.153_3 nphases=3 basefreq=60.0 units=km r1=0.15 x1=0.089 normamps=290.0
New linecode.153_4 nphases=4 basefreq=60.0 units=km r1=0.15 x1=0.089 normamps=290.0

New linecode.1571_1 nphases=1 basefreq=60.0 units=km r1=0.15 x1=0.089 normamps=290.0
New linecode.1571_2 nphases=2 basefreq=60.0 units=km r1=0.15 x1=0.089 normamps=290.0
New linecode.1571_3 nphases=3 basefreq=60.0 units=km r1=0.15 x1=0.089 normamps=290.0
New linecode.1571_4 nphases=4 basefreq=60.0 units=km r1=0.15 x1=0.089 normamps=290.0

New linecode.1670_1 nphases=1 basefreq=60.0 units=km r1=0.15 x1=0.089 normamps=290.0
New linecode.1670_2 nphases=2 basefreq=60.0 units=km r1=0.15 x1=0.089 normamps=290.0
New linecode.1670_3 nphases=3 basefreq=60.0 units=km r1=0.15 x1=0.089 normamps=290.0
New linecode.1670_4 nphases=4 basefreq=60.0 units=km r1=0.15 x1=0.089 normamps=290.0

New linecode.168_1 nphases=1 basefreq=60.0 units=km r1=0.15 x1=0.089 normamps=290.0
New linecode.168_2 nphases=2 basefreq=60.0 units=km r1=0.15 x1=0.089 normamps=290.0
New linecode.168_3 nphases=3 basefreq=60.0 units=km r1=0.15 x1=0.089 normamps=290.0
New linecode.168_4 nphases=4 basefreq=60.0 units=km r1=0.15 x1=0.089 normamps=290.0

New linecode.174_1 nphases=1 basefreq=60.0 units=km r1=0.15 x1=0.089 normamps=290.0
New linecode.174_2 nphases=2 basefreq=60.0 units=km r1=0.15 x1=0.089 normamps=290.0
New linecode.174_3 nphases=3 basefreq=60.0 units=km r1=0.15 x1=0.089 normamps=290.0
New linecode.174_4 nphases=4 basefreq=60.0 units=km r1=0.15 x1=0.089 normamps=290.0

New linecode.190_1 nphases=1 basefreq=60.0 units=km r1=0.15 x1=0.089 normamps=290.0
New linecode.190_2 nphases=2 basefreq=60.0 units=km r1=0.15 x1=0.089 normamps=290.0
New linecode.190_3 nphases=3 basefreq=60.0 units=km r1=0.15 x1=0.089 normamps=290.0
New linecode.190_4 nphases=4 basefreq=60.0 units=km r1=0.15 x1=0.089 normamps=290.0

New linecode.233_1 nphases=1 basefreq=60.0 units=km r1=0.15 x1=0.089 normamps=290.0
New linecode.233_2 nphases=2 basefreq=60.0 units=km r1=0.15 x1=0.089 normamps=290.0
New linecode.233_3 nphases=3 basefreq=60.0 units=km r1=0.15 x1=0.089 normamps=290.0
New linecode.233_4 nphases=4 basefreq=60.0 units=km r1=0.15 x1=0.089 normamps=290.0

New linecode.235_1 nphases=1 basefreq=60.0 units=km r1=0.15 x1=0.089 normamps=290.0
New linecode.235_2 nphases=2 basefreq=60.0 units=km r1=0.15 x1=0.089 normamps=290.0
New linecode.235_3 nphases=3 basefreq=60.0 units=km r1=0.15 x1=0.089 normamps=290.0
New linecode.235_4 nphases=4 basefreq=60.0 units=km r1=0.15 x1=0.089 normamps=290.0

New linecode.25_1 nphases=1 basefreq=60.0 units=km r1=0.15 x1=0.089 normamps=290.0
New linecode.25_2 nphases=2 basefreq=60.0 units=km r1=0.15 x1=0.089 normamps=290.0
New linecode.25_3 nphases=3 basefreq=60.0 units=km r1=0.15 x1=0.089 normamps=290.0
New linecode.25_4 nphases=4 basefreq=60.0 units=km r1=0.15 x1=0.089 normamps=290.0

New linecode.394_1 nphases=1 basefreq=60.0 units=km r1=0.15 x1=0.089 normamps=290.0
New linecode.394_2 nphases=2 basefreq=60.0 units=km r1=0.15 x1=0.089 normamps=290.0
New linecode.394_3 nphases=3 basefreq=60.0 units=km r1=0.15 x1=0.089 normamps=290.0
New linecode.394_4 nphases=4 basefreq=60.0 units=km r1=0.15 x1=0.089 normamps=290.0

New linecode.429_1 nphases=1 basefreq=60.0 units=km r1=0.15 x1=0.089 normamps=290.0
New linecode.429_2 nphases=2 basefreq=60.0 units=km r1=0.15 x1=0.089 normamps=290.0
New linecode.429_3 nphases=3 basefreq=60.0 units=km r1=0.15 x1=0.089 normamps=290.0
New linecode.429_4 nphases=4 basefreq=60.0 units=km r1=0.15 x1=0.089 normamps=290.0

New linecode.776_1 nphases=1 basefreq=60.0 units=km r1=0.15 x1=0.089 normamps=290.0
New linecode.776_2 nphases=2 basefreq=60.0 units=km r1=0.15 x1=0.089 normamps=290.0
New linecode.776_3 nphases=3 basefreq=60.0 units=km r1=0.15 x1=0.089 normamps=290.0
New linecode.776_4 nphases=4 basefreq=60.0 units=km r1=0.15 x1=0.089 normamps=290.0

New linecode.784_1 nphases=1 basefreq=60.0 units=km r1=0.15 x1=0.089 normamps=290.0
New linecode.784_2 nphases=2 basefreq=60.0 units=km r1=0.15 x1=0.089 normamps=290.0
New linecode.784_3 nphases=3 basefreq=60.0 units=km r1=0.15 x1=0.089 normamps=290.0
New linecode.784_4 nphases=4 basefreq=60.0 units=km r1=0.15 x1=0.089 normamps=290.0

New linecode.847_1 nphases=1 basefreq=60.0 units=km r1=0.15 x1=0.089 normamps=290.0
New linecode.847_2 nphases=2 basefreq=60.0 units=km r1=0.15 x1=0.089 normamps=290.0
New linecode.847_3 nphases=3 basefreq=60.0 units=km r1=0.15 x1=0.089 normamps=290.0
New linecode.847_4 nphases=4 basefreq=60.0 units=km r1=0.15 x1=0.089 normamps=290.0

New linecode.BT_BT001_7_0_1_1 nphases=1 basefreq=60.0 units=km r1=3.92161 x1=0.42106 normamps=42.9
New linecode.BT_BT001_7_0_1_2 nphases=2 basefreq=60.0 units=km r1=3.92161 x1=0.42106 normamps=42.9
New linecode.BT_BT001_7_0_1_3 nphases=3 basefreq=60.0 units=km r1=3.92161 x1=0.42106 normamps=42.9
New linecode.BT_BT001_7_0_1_4 nphases=4 basefreq=60.0 units=km r1=3.92161 x1=0.42106 normamps=42.9

New linecode.BT_BT002_7_0_1_1 nphases=1 basefreq=60.0 units=km r1=2.5303 x1=0.39834 normamps=91.0
New linecode.BT_BT002_7_0_1_2 nphases=2 basefreq=60.0 units=km r1=2.5303 x1=0.39834 normamps=91.0
New linecode.BT_BT002_7_0_1_3 nphases=3 basefreq=60.0 units=km r1=2.5303 x1=0.39834 normamps=91.0
New linecode.BT_BT002_7_0_1_4 nphases=4 basefreq=60.0 units=km r1=2.5303 x1=0.39834 normamps=91.0

New linecode.BT_BT003_5_0_1_1 nphases=1 basefreq=60.0 units=km r1=1.5896 x1=0.37504 normamps=98.8
New linecode.BT_BT003_5_0_1_2 nphases=2 basefreq=60.0 units=km r1=1.5896 x1=0.37504 normamps=98.8
New linecode.BT_BT003_5_0_1_3 nphases=3 basefreq=60.0 units=km r1=1.5896 x1=0.37504 normamps=98.8
New linecode.BT_BT003_5_0_1_4 nphases=4 basefreq=60.0 units=km r1=1.5896 x1=0.37504 normamps=98.8

New linecode.BT_BT003_7_0_1_1 nphases=1 basefreq=60.0 units=km r1=1.5896 x1=0.37504 normamps=98.8
New linecode.BT_BT003_7_0_1_2 nphases=2 basefreq=60.0 units=km r1=1.5896 x1=0.37504 normamps=98.8
New linecode.BT_BT003_7_0_1_3 nphases=3 basefreq=60.0 units=km r1=1.5896 x1=0.37504 normamps=98.8
New linecode.BT_BT003_7_0_1_4 nphases=4 basefreq=60.0 units=km r1=1.5896 x1=0.37504 normamps=98.8

New linecode.BT_BT004_5_0_1_1 nphases=1 basefreq=60.0 units=km r1=1.22784 x1=0.37908 normamps=120.9
New linecode.BT_BT004_5_0_1_2 nphases=2 basefreq=60.0 units=km r1=1.22784 x1=0.37908 normamps=120.9
New linecode.BT_BT004_5_0_1_3 nphases=3 basefreq=60.0 units=km r1=1.22784 x1=0.37908 normamps=120.9
New linecode.BT_BT004_5_0_1_4 nphases=4 basefreq=60.0 units=km r1=1.22784 x1=0.37908 normamps=120.9

New linecode.BT_BT004_7_0_1_1 nphases=1 basefreq=60.0 units=km r1=1.22784 x1=0.37908 normamps=120.9
New linecode.BT_BT004_7_0_1_2 nphases=2 basefreq=60.0 units=km r1=1.22784 x1=0.37908 normamps=120.9
New linecode.BT_BT004_7_0_1_3 nphases=3 basefreq=60.0 units=km r1=1.22784 x1=0.37908 normamps=120.9
New linecode.BT_BT004_7_0_1_4 nphases=4 basefreq=60.0 units=km r1=1.22784 x1=0.37908 normamps=120.9

New linecode.BT_BT005_7_0_1_1 nphases=1 basefreq=60.0 units=km r1=0.77257 x1=0.3546 normamps=131.3
New linecode.BT_BT005_7_0_1_2 nphases=2 basefreq=60.0 units=km r1=0.77257 x1=0.3546 normamps=131.3
New linecode.BT_BT005_7_0_1_3 nphases=3 basefreq=60.0 units=km r1=0.77257 x1=0.3546 normamps=131.3
New linecode.BT_BT005_7_0_1_4 nphases=4 basefreq=60.0 units=km r1=0.77257 x1=0.3546 normamps=131.3

New linecode.BT_BT006_5_0_1_1 nphases=1 basefreq=60.0 units=km r1=1.0019 x1=0.3634 normamps=176.8
New linecode.BT_BT006_5_0_1_2 nphases=2 basefreq=60.0 units=km r1=1.0019 x1=0.3634 normamps=176.8
New linecode.BT_BT006_5_0_1_3 nphases=3 basefreq=60.0 units=km r1=1.0019 x1=0.3634 normamps=176.8
New linecode.BT_BT006_5_0_1_4 nphases=4 basefreq=60.0 units=km r1=1.0019 x1=0.3634 normamps=176.8

New linecode.BT_BT006_7_0_1_1 nphases=1 basefreq=60.0 units=km r1=1.0019 x1=0.3634 normamps=176.8
New linecode.BT_BT006_7_0_1_2 nphases=2 basefreq=60.0 units=km r1=1.0019 x1=0.3634 normamps=176.8
New linecode.BT_BT006_7_0_1_3 nphases=3 basefreq=60.0 units=km r1=1.0019 x1=0.3634 normamps=176.8
New linecode.BT_BT006_7_0_1_4 nphases=4 basefreq=60.0 units=km r1=1.0019 x1=0.3634 normamps=176.8

New linecode.BT_BT007_5_0_1_1 nphases=1 basefreq=60.0 units=km r1=0.635 x1=0.34589 normamps=252.2
New linecode.BT_BT007_5_0_1_2 nphases=2 basefreq=60.0 units=km r1=0.635 x1=0.34589 normamps=252.2
New linecode.BT_BT007_5_0_1_3 nphases=3 basefreq=60.0 units=km r1=0.635 x1=0.34589 normamps=252.2
New linecode.BT_BT007_5_0_1_4 nphases=4 basefreq=60.0 units=km r1=0.635 x1=0.34589 normamps=252.2

New linecode.BT_BT007_7_0_1_1 nphases=1 basefreq=60.0 units=km r1=0.635 x1=0.34589 normamps=252.2
New linecode.BT_BT007_7_0_1_2 nphases=2 basefreq=60.0 units=km r1=0.635 x1=0.34589 normamps=252.2
New linecode.BT_BT007_7_0_1_3 nphases=3 basefreq=60.0 units=km r1=0.635 x1=0.34589 normamps=252.2
New linecode.BT_BT007_7_0_1_4 nphases=4 basefreq=60.0 units=km r1=0.635 x1=0.34589 normamps=252.2

New linecode.BT_BT008_5_0_1_1 nphases=1 basefreq=60.0 units=km r1=0.4047 x1=0.32431 normamps=327.6
New linecode.BT_BT008_5_0_1_2 nphases=2 basefreq=60.0 units=km r1=0.4047 x1=0.32431 normamps=327.6
New linecode.BT_BT008_5_0_1_3 nphases=3 basefreq=60.0 units=km r1=0.4047 x1=0.32431 normamps=327.6
New linecode.BT_BT008_5_0_1_4 nphases=4 basefreq=60.0 units=km r1=0.4047 x1=0.32431 normamps=327.6

New linecode.BT_BT008_7_0_1_1 nphases=1 basefreq=60.0 units=km r1=0.4047 x1=0.32431 normamps=327.6
New linecode.BT_BT008_7_0_1_2 nphases=2 basefreq=60.0 units=km r1=0.4047 x1=0.32431 normamps=327.6
New linecode.BT_BT008_7_0_1_3 nphases=3 basefreq=60.0 units=km r1=0.4047 x1=0.32431 normamps=327.6
New linecode.BT_BT008_7_0_1_4 nphases=4 basefreq=60.0 units=km r1=0.4047 x1=0.32431 normamps=327.6

New linecode.BT_BT009_5_0_1_1 nphases=1 basefreq=60.0 units=km r1=0.3208 x1=0.31543 normamps=380.9
New linecode.BT_BT009_5_0_1_2 nphases=2 basefreq=60.0 units=km r1=0.3208 x1=0.31543 normamps=380.9
New linecode.BT_BT009_5_0_1_3 nphases=3 basefreq=60.0 units=km r1=0.3208 x1=0.31543 normamps=380.9
New linecode.BT_BT009_5_0_1_4 nphases=4 basefreq=60.0 units=km r1=0.3208 x1=0.31543 normamps=380.9

New linecode.BT_BT009_7_0_1_1 nphases=1 basefreq=60.0 units=km r1=0.3208 x1=0.31543 normamps=380.9
New linecode.BT_BT009_7_0_1_2 nphases=2 basefreq=60.0 units=km r1=0.3208 x1=0.31543 normamps=380.9
New linecode.BT_BT009_7_0_1_3 nphases=3 basefreq=60.0 units=km r1=0.3208 x1=0.31543 normamps=380.9
New linecode.BT_BT009_7_0_1_4 nphases=4 basefreq=60.0 units=km r1=0.3208 x1=0.31543 normamps=380.9

New linecode.BT_BT010_5_0_1_1 nphases=1 basefreq=60.0 units=km r1=0.2551 x1=0.29889 normamps=439.4
New linecode.BT_BT010_5_0_1_2 nphases=2 basefreq=60.0 units=km r1=0.2551 x1=0.29889 normamps=439.4
New linecode.BT_BT010_5_0_1_3 nphases=3 basefreq=60.0 units=km r1=0.2551 x1=0.29889 normamps=439.4
New linecode.BT_BT010_5_0_1_4 nphases=4 basefreq=60.0 units=km r1=0.2551 x1=0.29889 normamps=439.4

New linecode.BT_BT010_7_0_1_1 nphases=1 basefreq=60.0 units=km r1=0.2551 x1=0.29889 normamps=439.4
New linecode.BT_BT010_7_0_1_2 nphases=2 basefreq=60.0 units=km r1=0.2551 x1=0.29889 normamps=439.4
New linecode.BT_BT010_7_0_1_3 nphases=3 basefreq=60.0 units=km r1=0.2551 x1=0.29889 normamps=439.4
New linecode.BT_BT010_7_0_1_4 nphases=4 basefreq=60.0 units=km r1=0.2551 x1=0.29889 normamps=439.4

New linecode.BT_BT011_5_0_1_1 nphases=1 basefreq=60.0 units=km r1=0.2027 x1=0.29792 normamps=512.2
New linecode.BT_BT011_5_0_1_2 nphases=2 basefreq=60.0 units=km r1=0.2027 x1=0.29792 normamps=512.2
New linecode.BT_BT011_5_0_1_3 nphases=3 basefreq=60.0 units=km r1=0.2027 x1=0.29792 normamps=512.2
New linecode.BT_BT011_5_0_1_4 nphases=4 basefreq=60.0 units=km r1=0.2027 x1=0.29792 normamps=512.2

New linecode.BT_BT011_7_0_1_1 nphases=1 basefreq=60.0 units=km r1=0.2027 x1=0.29792 normamps=512.2
New linecode.BT_BT011_7_0_1_2 nphases=2 basefreq=60.0 units=km r1=0.2027 x1=0.29792 normamps=512.2
New linecode.BT_BT011_7_0_1_3 nphases=3 basefreq=60.0 units=km r1=0.2027 x1=0.29792 normamps=512.2
New linecode.BT_BT011_7_0_1_4 nphases=4 basefreq=60.0 units=km r1=0.2027 x1=0.29792 normamps=512.2

New linecode.BT_BT101_7_0_1_1 nphases=1 basefreq=60.0 units=km r1=6.40252 x1=0.40416 normamps=62.4
New linecode.BT_BT101_7_0_1_2 nphases=2 basefreq=60.0 units=km r1=6.40252 x1=0.40416 normamps=62.4
New linecode.BT_BT101_7_0_1_3 nphases=3 basefreq=60.0 units=km r1=6.40252 x1=0.40416 normamps=62.4
New linecode.BT_BT101_7_0_1_4 nphases=4 basefreq=60.0 units=km r1=6.40252 x1=0.40416 normamps=62.4

New linecode.BT_BT102_7_0_1_1 nphases=1 basefreq=60.0 units=km r1=4.04087 x1=0.39834 normamps=83.2
New linecode.BT_BT102_7_0_1_2 nphases=2 basefreq=60.0 units=km r1=4.04087 x1=0.39834 normamps=83.2
New linecode.BT_BT102_7_0_1_3 nphases=3 basefreq=60.0 units=km r1=4.04087 x1=0.39834 normamps=83.2
New linecode.BT_BT102_7_0_1_4 nphases=4 basefreq=60.0 units=km r1=4.04087 x1=0.39834 normamps=83.2

New linecode.BT_BT103_7_0_1_1 nphases=1 basefreq=60.0 units=km r1=2.5676 x1=0.35814 normamps=105.3
New linecode.BT_BT103_7_0_1_2 nphases=2 basefreq=60.0 units=km r1=2.5676 x1=0.35814 normamps=105.3
New linecode.BT_BT103_7_0_1_3 nphases=3 basefreq=60.0 units=km r1=2.5676 x1=0.35814 normamps=105.3
New linecode.BT_BT103_7_0_1_4 nphases=4 basefreq=60.0 units=km r1=2.5676 x1=0.35814 normamps=105.3

New linecode.BT_BT104_7_0_1_1 nphases=1 basefreq=60.0 units=km r1=2.0084 x1=0.37908 normamps=106.6
New linecode.BT_BT104_7_0_1_2 nphases=2 basefreq=60.0 units=km r1=2.0084 x1=0.37908 normamps=106.6
New linecode.BT_BT104_7_0_1_3 nphases=3 basefreq=60.0 units=km r1=2.0084 x1=0.37908 normamps=106.6
New linecode.BT_BT104_7_0_1_4 nphases=4 basefreq=60.0 units=km r1=2.0084 x1=0.37908 normamps=106.6

New linecode.BT_BT105_7_0_1_1 nphases=1 basefreq=60.0 units=km r1=1.2637 x1=0.3377 normamps=131.3
New linecode.BT_BT105_7_0_1_2 nphases=2 basefreq=60.0 units=km r1=1.2637 x1=0.3377 normamps=131.3
New linecode.BT_BT105_7_0_1_3 nphases=3 basefreq=60.0 units=km r1=1.2637 x1=0.3377 normamps=131.3
New linecode.BT_BT105_7_0_1_4 nphases=4 basefreq=60.0 units=km r1=1.2637 x1=0.3377 normamps=131.3

New linecode.BT_BT106_5_0_1_1 nphases=1 basefreq=60.0 units=km r1=1.6118 x1=0.3634 normamps=144.3
New linecode.BT_BT106_5_0_1_2 nphases=2 basefreq=60.0 units=km r1=1.6118 x1=0.3634 normamps=144.3
New linecode.BT_BT106_5_0_1_3 nphases=3 basefreq=60.0 units=km r1=1.6118 x1=0.3634 normamps=144.3
New linecode.BT_BT106_5_0_1_4 nphases=4 basefreq=60.0 units=km r1=1.6118 x1=0.3634 normamps=144.3

New linecode.BT_BT106_7_0_1_1 nphases=1 basefreq=60.0 units=km r1=1.6118 x1=0.3634 normamps=144.3
New linecode.BT_BT106_7_0_1_2 nphases=2 basefreq=60.0 units=km r1=1.6118 x1=0.3634 normamps=144.3
New linecode.BT_BT106_7_0_1_3 nphases=3 basefreq=60.0 units=km r1=1.6118 x1=0.3634 normamps=144.3
New linecode.BT_BT106_7_0_1_4 nphases=4 basefreq=60.0 units=km r1=1.6118 x1=0.3634 normamps=144.3

New linecode.BT_BT107_5_0_1_1 nphases=1 basefreq=60.0 units=km r1=1.0145 x1=0.32899 normamps=193.7
New linecode.BT_BT107_5_0_1_2 nphases=2 basefreq=60.0 units=km r1=1.0145 x1=0.32899 normamps=193.7
New linecode.BT_BT107_5_0_1_3 nphases=3 basefreq=60.0 units=km r1=1.0145 x1=0.32899 normamps=193.7
New linecode.BT_BT107_5_0_1_4 nphases=4 basefreq=60.0 units=km r1=1.0145 x1=0.32899 normamps=193.7

New linecode.BT_BT107_7_0_1_1 nphases=1 basefreq=60.0 units=km r1=1.0145 x1=0.32899 normamps=193.7
New linecode.BT_BT107_7_0_1_2 nphases=2 basefreq=60.0 units=km r1=1.0145 x1=0.32899 normamps=193.7
New linecode.BT_BT107_7_0_1_3 nphases=3 basefreq=60.0 units=km r1=1.0145 x1=0.32899 normamps=193.7
New linecode.BT_BT107_7_0_1_4 nphases=4 basefreq=60.0 units=km r1=1.0145 x1=0.32899 normamps=193.7

New linecode.BT_BT108_5_0_1_1 nphases=1 basefreq=60.0 units=km r1=0.6375 x1=0.32431 normamps=261.3
New linecode.BT_BT108_5_0_1_2 nphases=2 basefreq=60.0 units=km r1=0.6375 x1=0.32431 normamps=261.3
New linecode.BT_BT108_5_0_1_3 nphases=3 basefreq=60.0 units=km r1=0.6375 x1=0.32431 normamps=261.3
New linecode.BT_BT108_5_0_1_4 nphases=4 basefreq=60.0 units=km r1=0.6375 x1=0.32431 normamps=261.3

New linecode.BT_BT108_7_0_1_1 nphases=1 basefreq=60.0 units=km r1=0.6375 x1=0.32431 normamps=261.3
New linecode.BT_BT108_7_0_1_2 nphases=2 basefreq=60.0 units=km r1=0.6375 x1=0.32431 normamps=261.3
New linecode.BT_BT108_7_0_1_3 nphases=3 basefreq=60.0 units=km r1=0.6375 x1=0.32431 normamps=261.3
New linecode.BT_BT108_7_0_1_4 nphases=4 basefreq=60.0 units=km r1=0.6375 x1=0.32431 normamps=261.3

New linecode.BT_BT109_5_0_1_1 nphases=1 basefreq=60.0 units=km r1=0.44944 x1=0.31543 normamps=299.0
New linecode.BT_BT109_5_0_1_2 nphases=2 basefreq=60.0 units=km r1=0.44944 x1=0.31543 normamps=299.0
New linecode.BT_BT109_5_0_1_3 nphases=3 basefreq=60.0 units=km r1=0.44944 x1=0.31543 normamps=299.0
New linecode.BT_BT109_5_0_1_4 nphases=4 basefreq=60.0 units=km r1=0.44944 x1=0.31543 normamps=299.0

New linecode.BT_BT109_7_0_1_1 nphases=1 basefreq=60.0 units=km r1=0.44944 x1=0.31543 normamps=299.0
New linecode.BT_BT109_7_0_1_2 nphases=2 basefreq=60.0 units=km r1=0.44944 x1=0.31543 normamps=299.0
New linecode.BT_BT109_7_0_1_3 nphases=3 basefreq=60.0 units=km r1=0.44944 x1=0.31543 normamps=299.0
New linecode.BT_BT109_7_0_1_4 nphases=4 basefreq=60.0 units=km r1=0.44944 x1=0.31543 normamps=299.0

New linecode.BT_BT110_7_0_1_1 nphases=1 basefreq=60.0 units=km r1=0.40104 x1=0.29889 normamps=351.0
New linecode.BT_BT110_7_0_1_2 nphases=2 basefreq=60.0 units=km r1=0.40104 x1=0.29889 normamps=351.0
New linecode.BT_BT110_7_0_1_3 nphases=3 basefreq=60.0 units=km r1=0.40104 x1=0.29889 normamps=351.0
New linecode.BT_BT110_7_0_1_4 nphases=4 basefreq=60.0 units=km r1=0.40104 x1=0.29889 normamps=351.0

New linecode.BT_BT111_5_0_1_1 nphases=1 basefreq=60.0 units=km r1=0.3184 x1=0.29792 normamps=408.2
New linecode.BT_BT111_5_0_1_2 nphases=2 basefreq=60.0 units=km r1=0.3184 x1=0.29792 normamps=408.2
New linecode.BT_BT111_5_0_1_3 nphases=3 basefreq=60.0 units=km r1=0.3184 x1=0.29792 normamps=408.2
New linecode.BT_BT111_5_0_1_4 nphases=4 basefreq=60.0 units=km r1=0.3184 x1=0.29792 normamps=408.2

New linecode.BT_BT111_7_0_1_1 nphases=1 basefreq=60.0 units=km r1=0.3184 x1=0.29792 normamps=408.2
New linecode.BT_BT111_7_0_1_2 nphases=2 basefreq=60.0 units=km r1=0.3184 x1=0.29792 normamps=408.2
New linecode.BT_BT111_7_0_1_3 nphases=3 basefreq=60.0 units=km r1=0.3184 x1=0.29792 normamps=408.2
New linecode.BT_BT111_7_0_1_4 nphases=4 basefreq=60.0 units=km r1=0.3184 x1=0.29792 normamps=408.2

New linecode.BT_BT201_7_0_1_1 nphases=1 basefreq=60.0 units=km r1=6.4147 x1=0.40416 normamps=32.5
New linecode.BT_BT201_7_0_1_2 nphases=2 basefreq=60.0 units=km r1=6.4147 x1=0.40416 normamps=32.5
New linecode.BT_BT201_7_0_1_3 nphases=3 basefreq=60.0 units=km r1=6.4147 x1=0.40416 normamps=32.5
New linecode.BT_BT201_7_0_1_4 nphases=4 basefreq=60.0 units=km r1=6.4147 x1=0.40416 normamps=32.5

New linecode.BT_BT202_7_0_1_1 nphases=1 basefreq=60.0 units=km r1=4.02616 x1=0.40354 normamps=42.9
New linecode.BT_BT202_7_0_1_2 nphases=2 basefreq=60.0 units=km r1=4.02616 x1=0.40354 normamps=42.9
New linecode.BT_BT202_7_0_1_3 nphases=3 basefreq=60.0 units=km r1=4.02616 x1=0.40354 normamps=42.9
New linecode.BT_BT202_7_0_1_4 nphases=4 basefreq=60.0 units=km r1=4.02616 x1=0.40354 normamps=42.9

New linecode.BT_BT203_7_0_1_1 nphases=1 basefreq=60.0 units=km r1=2.11523 x1=0.36218 normamps=106.6
New linecode.BT_BT203_7_0_1_2 nphases=2 basefreq=60.0 units=km r1=2.11523 x1=0.36218 normamps=106.6
New linecode.BT_BT203_7_0_1_3 nphases=3 basefreq=60.0 units=km r1=2.11523 x1=0.36218 normamps=106.6
New linecode.BT_BT203_7_0_1_4 nphases=4 basefreq=60.0 units=km r1=2.11523 x1=0.36218 normamps=106.6

New linecode.BT_BT204_7_0_1_1 nphases=1 basefreq=60.0 units=km r1=2.64739 x1=0.40267 normamps=109.2
New linecode.BT_BT204_7_0_1_2 nphases=2 basefreq=60.0 units=km r1=2.64739 x1=0.40267 normamps=109.2
New linecode.BT_BT204_7_0_1_3 nphases=3 basefreq=60.0 units=km r1=2.64739 x1=0.40267 normamps=109.2
New linecode.BT_BT204_7_0_1_4 nphases=4 basefreq=60.0 units=km r1=2.64739 x1=0.40267 normamps=109.2

New linecode.BT_BT205_7_0_1_1 nphases=1 basefreq=60.0 units=km r1=1.37694 x1=0.39606 normamps=131.3
New linecode.BT_BT205_7_0_1_2 nphases=2 basefreq=60.0 units=km r1=1.37694 x1=0.39606 normamps=131.3
New linecode.BT_BT205_7_0_1_3 nphases=3 basefreq=60.0 units=km r1=1.37694 x1=0.39606 normamps=131.3
New linecode.BT_BT205_7_0_1_4 nphases=4 basefreq=60.0 units=km r1=1.37694 x1=0.39606 normamps=131.3

New linecode.BT_BT206_5_0_1_1 nphases=1 basefreq=60.0 units=km r1=1.6397 x1=0.3465 normamps=145.6
New linecode.BT_BT206_5_0_1_2 nphases=2 basefreq=60.0 units=km r1=1.6397 x1=0.3465 normamps=145.6
New linecode.BT_BT206_5_0_1_3 nphases=3 basefreq=60.0 units=km r1=1.6397 x1=0.3465 normamps=145.6
New linecode.BT_BT206_5_0_1_4 nphases=4 basefreq=60.0 units=km r1=1.6397 x1=0.3465 normamps=145.6

New linecode.BT_BT206_7_0_1_1 nphases=1 basefreq=60.0 units=km r1=1.6397 x1=0.3465 normamps=145.6
New linecode.BT_BT206_7_0_1_2 nphases=2 basefreq=60.0 units=km r1=1.6397 x1=0.3465 normamps=145.6
New linecode.BT_BT206_7_0_1_3 nphases=3 basefreq=60.0 units=km r1=1.6397 x1=0.3465 normamps=145.6
New linecode.BT_BT206_7_0_1_4 nphases=4 basefreq=60.0 units=km r1=1.6397 x1=0.3465 normamps=145.6

New linecode.BT_BT207_5_0_1_1 nphases=1 basefreq=60.0 units=km r1=1.0323 x1=0.38435 normamps=196.3
New linecode.BT_BT207_5_0_1_2 nphases=2 basefreq=60.0 units=km r1=1.0323 x1=0.38435 normamps=196.3
New linecode.BT_BT207_5_0_1_3 nphases=3 basefreq=60.0 units=km r1=1.0323 x1=0.38435 normamps=196.3
New linecode.BT_BT207_5_0_1_4 nphases=4 basefreq=60.0 units=km r1=1.0323 x1=0.38435 normamps=196.3

New linecode.BT_BT207_7_0_1_1 nphases=1 basefreq=60.0 units=km r1=1.0323 x1=0.38435 normamps=196.3
New linecode.BT_BT207_7_0_1_2 nphases=2 basefreq=60.0 units=km r1=1.0323 x1=0.38435 normamps=196.3
New linecode.BT_BT207_7_0_1_3 nphases=3 basefreq=60.0 units=km r1=1.0323 x1=0.38435 normamps=196.3
New linecode.BT_BT207_7_0_1_4 nphases=4 basefreq=60.0 units=km r1=1.0323 x1=0.38435 normamps=196.3

New linecode.BT_BT208_5_0_1_1 nphases=1 basefreq=60.0 units=km r1=0.65 x1=0.30741 normamps=263.9
New linecode.BT_BT208_5_0_1_2 nphases=2 basefreq=60.0 units=km r1=0.65 x1=0.30741 normamps=263.9
New linecode.BT_BT208_5_0_1_3 nphases=3 basefreq=60.0 units=km r1=0.65 x1=0.30741 normamps=263.9
New linecode.BT_BT208_5_0_1_4 nphases=4 basefreq=60.0 units=km r1=0.65 x1=0.30741 normamps=263.9

New linecode.BT_BT208_7_0_1_1 nphases=1 basefreq=60.0 units=km r1=0.65 x1=0.30741 normamps=263.9
New linecode.BT_BT208_7_0_1_2 nphases=2 basefreq=60.0 units=km r1=0.65 x1=0.30741 normamps=263.9
New linecode.BT_BT208_7_0_1_3 nphases=3 basefreq=60.0 units=km r1=0.65 x1=0.30741 normamps=263.9
New linecode.BT_BT208_7_0_1_4 nphases=4 basefreq=60.0 units=km r1=0.65 x1=0.30741 normamps=263.9

New linecode.BT_BT209_7_0_1_1 nphases=1 basefreq=60.0 units=km r1=0.5953 x1=0.38337 normamps=302.9
New linecode.BT_BT209_7_0_1_2 nphases=2 basefreq=60.0 units=km r1=0.5953 x1=0.38337 normamps=302.9
New linecode.BT_BT209_7_0_1_3 nphases=3 basefreq=60.0 units=km r1=0.5953 x1=0.38337 normamps=302.9
New linecode.BT_BT209_7_0_1_4 nphases=4 basefreq=60.0 units=km r1=0.5953 x1=0.38337 normamps=302.9

New linecode.BT_BT210_7_0_1_1 nphases=1 basefreq=60.0 units=km r1=0.48089 x1=0.28199 normamps=382.2
New linecode.BT_BT210_7_0_1_2 nphases=2 basefreq=60.0 units=km r1=0.48089 x1=0.28199 normamps=382.2
New linecode.BT_BT210_7_0_1_3 nphases=3 basefreq=60.0 units=km r1=0.48089 x1=0.28199 normamps=382.2
New linecode.BT_BT210_7_0_1_4 nphases=4 basefreq=60.0 units=km r1=0.48089 x1=0.28199 normamps=382.2

New linecode.BT_BT211_7_0_1_1 nphases=1 basefreq=60.0 units=km r1=0.3257 x1=0.34793 normamps=413.4
New linecode.BT_BT211_7_0_1_2 nphases=2 basefreq=60.0 units=km r1=0.3257 x1=0.34793 normamps=413.4
New linecode.BT_BT211_7_0_1_3 nphases=3 basefreq=60.0 units=km r1=0.3257 x1=0.34793 normamps=413.4
New linecode.BT_BT211_7_0_1_4 nphases=4 basefreq=60.0 units=km r1=0.3257 x1=0.34793 normamps=413.4

New linecode.BT_BT301_7_0_1_1 nphases=1 basefreq=60.0 units=km r1=3.9216 x1=0.15779 normamps=79.3
New linecode.BT_BT301_7_0_1_2 nphases=2 basefreq=60.0 units=km r1=3.9216 x1=0.15779 normamps=79.3
New linecode.BT_BT301_7_0_1_3 nphases=3 basefreq=60.0 units=km r1=3.9216 x1=0.15779 normamps=79.3
New linecode.BT_BT301_7_0_1_4 nphases=4 basefreq=60.0 units=km r1=3.9216 x1=0.15779 normamps=79.3

New linecode.BT_BT302_5_0_1_1 nphases=1 basefreq=60.0 units=km r1=1.23 x1=0.12896 normamps=91.0
New linecode.BT_BT302_5_0_1_2 nphases=2 basefreq=60.0 units=km r1=1.23 x1=0.12896 normamps=91.0
New linecode.BT_BT302_5_0_1_3 nphases=3 basefreq=60.0 units=km r1=1.23 x1=0.12896 normamps=91.0
New linecode.BT_BT302_5_0_1_4 nphases=4 basefreq=60.0 units=km r1=1.23 x1=0.12896 normamps=91.0

New linecode.BT_BT302_7_0_1_1 nphases=1 basefreq=60.0 units=km r1=1.23 x1=0.12896 normamps=91.0
New linecode.BT_BT302_7_0_1_2 nphases=2 basefreq=60.0 units=km r1=1.23 x1=0.12896 normamps=91.0
New linecode.BT_BT302_7_0_1_3 nphases=3 basefreq=60.0 units=km r1=1.23 x1=0.12896 normamps=91.0
New linecode.BT_BT302_7_0_1_4 nphases=4 basefreq=60.0 units=km r1=1.23 x1=0.12896 normamps=91.0

New linecode.BT_BT304_5_0_1_1 nphases=1 basefreq=60.0 units=km r1=0.7734 x1=0.12869 normamps=120.9
New linecode.BT_BT304_5_0_1_2 nphases=2 basefreq=60.0 units=km r1=0.7734 x1=0.12869 normamps=120.9
New linecode.BT_BT304_5_0_1_3 nphases=3 basefreq=60.0 units=km r1=0.7734 x1=0.12869 normamps=120.9
New linecode.BT_BT304_5_0_1_4 nphases=4 basefreq=60.0 units=km r1=0.7734 x1=0.12869 normamps=120.9

New linecode.BT_BT304_7_0_1_1 nphases=1 basefreq=60.0 units=km r1=0.7734 x1=0.12869 normamps=120.9
New linecode.BT_BT304_7_0_1_2 nphases=2 basefreq=60.0 units=km r1=0.7734 x1=0.12869 normamps=120.9
New linecode.BT_BT304_7_0_1_3 nphases=3 basefreq=60.0 units=km r1=0.7734 x1=0.12869 normamps=120.9
New linecode.BT_BT304_7_0_1_4 nphases=4 basefreq=60.0 units=km r1=0.7734 x1=0.12869 normamps=120.9

New linecode.BT_BT305_5_0_1_1 nphases=1 basefreq=60.0 units=km r1=1.6022 x1=0.13368 normamps=141.7
New linecode.BT_BT305_5_0_1_2 nphases=2 basefreq=60.0 units=km r1=1.6022 x1=0.13368 normamps=141.7
New linecode.BT_BT305_5_0_1_3 nphases=3 basefreq=60.0 units=km r1=1.6022 x1=0.13368 normamps=141.7
New linecode.BT_BT305_5_0_1_4 nphases=4 basefreq=60.0 units=km r1=1.6022 x1=0.13368 normamps=141.7

New linecode.BT_BT306_5_0_1_1 nphases=1 basefreq=60.0 units=km r1=0.9282 x1=0.13177 normamps=188.5
New linecode.BT_BT306_5_0_1_2 nphases=2 basefreq=60.0 units=km r1=0.9282 x1=0.13177 normamps=188.5
New linecode.BT_BT306_5_0_1_3 nphases=3 basefreq=60.0 units=km r1=0.9282 x1=0.13177 normamps=188.5
New linecode.BT_BT306_5_0_1_4 nphases=4 basefreq=60.0 units=km r1=0.9282 x1=0.13177 normamps=188.5

New linecode.BT_BT306_7_0_1_1 nphases=1 basefreq=60.0 units=km r1=0.9282 x1=0.13177 normamps=188.5
New linecode.BT_BT306_7_0_1_2 nphases=2 basefreq=60.0 units=km r1=0.9282 x1=0.13177 normamps=188.5
New linecode.BT_BT306_7_0_1_3 nphases=3 basefreq=60.0 units=km r1=0.9282 x1=0.13177 normamps=188.5
New linecode.BT_BT306_7_0_1_4 nphases=4 basefreq=60.0 units=km r1=0.9282 x1=0.13177 normamps=188.5

New linecode.BT_BT307_5_0_1_1 nphases=1 basefreq=60.0 units=km r1=0.6694 x1=0.12554 normamps=249.6
New linecode.BT_BT307_5_0_1_2 nphases=2 basefreq=60.0 units=km r1=0.6694 x1=0.12554 normamps=249.6
New linecode.BT_BT307_5_0_1_3 nphases=3 basefreq=60.0 units=km r1=0.6694 x1=0.12554 normamps=249.6
New linecode.BT_BT307_5_0_1_4 nphases=4 basefreq=60.0 units=km r1=0.6694 x1=0.12554 normamps=249.6

New linecode.BT_BT307_7_0_1_1 nphases=1 basefreq=60.0 units=km r1=0.6694 x1=0.12554 normamps=249.6
New linecode.BT_BT307_7_0_1_2 nphases=2 basefreq=60.0 units=km r1=0.6694 x1=0.12554 normamps=249.6
New linecode.BT_BT307_7_0_1_3 nphases=3 basefreq=60.0 units=km r1=0.6694 x1=0.12554 normamps=249.6
New linecode.BT_BT307_7_0_1_4 nphases=4 basefreq=60.0 units=km r1=0.6694 x1=0.12554 normamps=249.6

New linecode.BT_BT308_5_0_1_1 nphases=1 basefreq=60.0 units=km r1=0.4002 x1=0.12359 normamps=335.4
New linecode.BT_BT308_5_0_1_2 nphases=2 basefreq=60.0 units=km r1=0.4002 x1=0.12359 normamps=335.4
New linecode.BT_BT308_5_0_1_3 nphases=3 basefreq=60.0 units=km r1=0.4002 x1=0.12359 normamps=335.4
New linecode.BT_BT308_5_0_1_4 nphases=4 basefreq=60.0 units=km r1=0.4002 x1=0.12359 normamps=335.4

New linecode.BT_BT308_7_0_1_1 nphases=1 basefreq=60.0 units=km r1=0.4002 x1=0.12359 normamps=335.4
New linecode.BT_BT308_7_0_1_2 nphases=2 basefreq=60.0 units=km r1=0.4002 x1=0.12359 normamps=335.4
New linecode.BT_BT308_7_0_1_3 nphases=3 basefreq=60.0 units=km r1=0.4002 x1=0.12359 normamps=335.4
New linecode.BT_BT308_7_0_1_4 nphases=4 basefreq=60.0 units=km r1=0.4002 x1=0.12359 normamps=335.4

New linecode.BT_BT309_5_0_1_1 nphases=1 basefreq=60.0 units=km r1=0.3208 x1=0.12075 normamps=387.4
New linecode.BT_BT309_5_0_1_2 nphases=2 basefreq=60.0 units=km r1=0.3208 x1=0.12075 normamps=387.4
New linecode.BT_BT309_5_0_1_3 nphases=3 basefreq=60.0 units=km r1=0.3208 x1=0.12075 normamps=387.4
New linecode.BT_BT309_5_0_1_4 nphases=4 basefreq=60.0 units=km r1=0.3208 x1=0.12075 normamps=387.4

New linecode.BT_BT309_7_0_1_1 nphases=1 basefreq=60.0 units=km r1=0.3208 x1=0.12075 normamps=387.4
New linecode.BT_BT309_7_0_1_2 nphases=2 basefreq=60.0 units=km r1=0.3208 x1=0.12075 normamps=387.4
New linecode.BT_BT309_7_0_1_3 nphases=3 basefreq=60.0 units=km r1=0.3208 x1=0.12075 normamps=387.4
New linecode.BT_BT309_7_0_1_4 nphases=4 basefreq=60.0 units=km r1=0.3208 x1=0.12075 normamps=387.4

New linecode.BT_BT310_5_0_1_1 nphases=1 basefreq=60.0 units=km r1=0.24259 x1=0.10148 normamps=448.5
New linecode.BT_BT310_5_0_1_2 nphases=2 basefreq=60.0 units=km r1=0.24259 x1=0.10148 normamps=448.5
New linecode.BT_BT310_5_0_1_3 nphases=3 basefreq=60.0 units=km r1=0.24259 x1=0.10148 normamps=448.5
New linecode.BT_BT310_5_0_1_4 nphases=4 basefreq=60.0 units=km r1=0.24259 x1=0.10148 normamps=448.5

New linecode.BT_BT310_7_0_1_1 nphases=1 basefreq=60.0 units=km r1=0.24259 x1=0.10148 normamps=448.5
New linecode.BT_BT310_7_0_1_2 nphases=2 basefreq=60.0 units=km r1=0.24259 x1=0.10148 normamps=448.5
New linecode.BT_BT310_7_0_1_3 nphases=3 basefreq=60.0 units=km r1=0.24259 x1=0.10148 normamps=448.5
New linecode.BT_BT310_7_0_1_4 nphases=4 basefreq=60.0 units=km r1=0.24259 x1=0.10148 normamps=448.5

New linecode.BT_BT311_5_0_1_1 nphases=1 basefreq=60.0 units=km r1=0.2078 x1=0.11286 normamps=520.0
New linecode.BT_BT311_5_0_1_2 nphases=2 basefreq=60.0 units=km r1=0.2078 x1=0.11286 normamps=520.0
New linecode.BT_BT311_5_0_1_3 nphases=3 basefreq=60.0 units=km r1=0.2078 x1=0.11286 normamps=520.0
New linecode.BT_BT311_5_0_1_4 nphases=4 basefreq=60.0 units=km r1=0.2078 x1=0.11286 normamps=520.0

New linecode.BT_BT312_5_0_1_1 nphases=1 basefreq=60.0 units=km r1=0.12098 x1=0.12477 normamps=650.0
New linecode.BT_BT312_5_0_1_2 nphases=2 basefreq=60.0 units=km r1=0.12098 x1=0.12477 normamps=650.0
New linecode.BT_BT312_5_0_1_3 nphases=3 basefreq=60.0 units=km r1=0.12098 x1=0.12477 normamps=650.0
New linecode.BT_BT312_5_0_1_4 nphases=4 basefreq=60.0 units=km r1=0.12098 x1=0.12477 normamps=650.0

New linecode.BT_BT314_5_0_1_1 nphases=1 basefreq=60.0 units=km r1=0.08595 x1=0.11988 normamps=1025.7
New linecode.BT_BT314_5_0_1_2 nphases=2 basefreq=60.0 units=km r1=0.08595 x1=0.11988 normamps=1025.7
New linecode.BT_BT314_5_0_1_3 nphases=3 basefreq=60.0 units=km r1=0.08595 x1=0.11988 normamps=1025.7
New linecode.BT_BT314_5_0_1_4 nphases=4 basefreq=60.0 units=km r1=0.08595 x1=0.11988 normamps=1025.7

New linecode.BT_BT314_7_0_1_1 nphases=1 basefreq=60.0 units=km r1=0.08595 x1=0.11988 normamps=1025.7
New linecode.BT_BT314_7_0_1_2 nphases=2 basefreq=60.0 units=km r1=0.08595 x1=0.11988 normamps=1025.7
New linecode.BT_BT314_7_0_1_3 nphases=3 basefreq=60.0 units=km r1=0.08595 x1=0.11988 normamps=1025.7
New linecode.BT_BT314_7_0_1_4 nphases=4 basefreq=60.0 units=km r1=0.08595 x1=0.11988 normamps=1025.7

New linecode.BT_BT316_7_0_1_1 nphases=1 basefreq=60.0 units=km r1=2.06277 x1=0.14583 normamps=132.6
New linecode.BT_BT316_7_0_1_2 nphases=2 basefreq=60.0 units=km r1=2.06277 x1=0.14583 normamps=132.6
New linecode.BT_BT316_7_0_1_3 nphases=3 basefreq=60.0 units=km r1=2.06277 x1=0.14583 normamps=132.6
New linecode.BT_BT316_7_0_1_4 nphases=4 basefreq=60.0 units=km r1=2.06277 x1=0.14583 normamps=132.6

New linecode.BT_BT317_5_0_1_1 nphases=1 basefreq=60.0 units=km r1=0.21713 x1=0.12323 normamps=555.1
New linecode.BT_BT317_5_0_1_2 nphases=2 basefreq=60.0 units=km r1=0.21713 x1=0.12323 normamps=555.1
New linecode.BT_BT317_5_0_1_3 nphases=3 basefreq=60.0 units=km r1=0.21713 x1=0.12323 normamps=555.1
New linecode.BT_BT317_5_0_1_4 nphases=4 basefreq=60.0 units=km r1=0.21713 x1=0.12323 normamps=555.1

New linecode.BT_BT502_5_0_1_1 nphases=1 basefreq=60.0 units=km r1=4.0404 x1=0.14767 normamps=83.2
New linecode.BT_BT502_5_0_1_2 nphases=2 basefreq=60.0 units=km r1=4.0404 x1=0.14767 normamps=83.2
New linecode.BT_BT502_5_0_1_3 nphases=3 basefreq=60.0 units=km r1=4.0404 x1=0.14767 normamps=83.2
New linecode.BT_BT502_5_0_1_4 nphases=4 basefreq=60.0 units=km r1=4.0404 x1=0.14767 normamps=83.2

New linecode.BT_BT503_5_0_1_1 nphases=1 basefreq=60.0 units=km r1=0.1335 x1=0.13241 normamps=106.6
New linecode.BT_BT503_5_0_1_2 nphases=2 basefreq=60.0 units=km r1=0.1335 x1=0.13241 normamps=106.6
New linecode.BT_BT503_5_0_1_3 nphases=3 basefreq=60.0 units=km r1=0.1335 x1=0.13241 normamps=106.6
New linecode.BT_BT503_5_0_1_4 nphases=4 basefreq=60.0 units=km r1=0.1335 x1=0.13241 normamps=106.6

New linecode.BT_BT503_7_0_1_1 nphases=1 basefreq=60.0 units=km r1=0.1335 x1=0.13241 normamps=106.6
New linecode.BT_BT503_7_0_1_2 nphases=2 basefreq=60.0 units=km r1=0.1335 x1=0.13241 normamps=106.6
New linecode.BT_BT503_7_0_1_3 nphases=3 basefreq=60.0 units=km r1=0.1335 x1=0.13241 normamps=106.6
New linecode.BT_BT503_7_0_1_4 nphases=4 basefreq=60.0 units=km r1=0.1335 x1=0.13241 normamps=106.6

New linecode.BT_BT504_5_0_1_1 nphases=1 basefreq=60.0 units=km r1=2.5427 x1=0.13522 normamps=110.5
New linecode.BT_BT504_5_0_1_2 nphases=2 basefreq=60.0 units=km r1=2.5427 x1=0.13522 normamps=110.5
New linecode.BT_BT504_5_0_1_3 nphases=3 basefreq=60.0 units=km r1=2.5427 x1=0.13522 normamps=110.5
New linecode.BT_BT504_5_0_1_4 nphases=4 basefreq=60.0 units=km r1=2.5427 x1=0.13522 normamps=110.5

New linecode.BT_BT505_5_0_1_1 nphases=1 basefreq=60.0 units=km r1=1.6119 x1=0.13815 normamps=131.3
New linecode.BT_BT505_5_0_1_2 nphases=2 basefreq=60.0 units=km r1=1.6119 x1=0.13815 normamps=131.3
New linecode.BT_BT505_5_0_1_3 nphases=3 basefreq=60.0 units=km r1=1.6119 x1=0.13815 normamps=131.3
New linecode.BT_BT505_5_0_1_4 nphases=4 basefreq=60.0 units=km r1=1.6119 x1=0.13815 normamps=131.3

New linecode.BT_BT506_5_0_1_1 nphases=1 basefreq=60.0 units=km r1=2.0166 x1=0.13341 normamps=146.9
New linecode.BT_BT506_5_0_1_2 nphases=2 basefreq=60.0 units=km r1=2.0166 x1=0.13341 normamps=146.9
New linecode.BT_BT506_5_0_1_3 nphases=3 basefreq=60.0 units=km r1=2.0166 x1=0.13341 normamps=146.9
New linecode.BT_BT506_5_0_1_4 nphases=4 basefreq=60.0 units=km r1=2.0166 x1=0.13341 normamps=146.9

New linecode.BT_BT507_5_0_1_1 nphases=1 basefreq=60.0 units=km r1=1.268 x1=0.12551 normamps=195.0
New linecode.BT_BT507_5_0_1_2 nphases=2 basefreq=60.0 units=km r1=1.268 x1=0.12551 normamps=195.0
New linecode.BT_BT507_5_0_1_3 nphases=3 basefreq=60.0 units=km r1=1.268 x1=0.12551 normamps=195.0
New linecode.BT_BT507_5_0_1_4 nphases=4 basefreq=60.0 units=km r1=1.268 x1=0.12551 normamps=195.0

New linecode.BT_BT507_7_0_1_1 nphases=1 basefreq=60.0 units=km r1=1.268 x1=0.12551 normamps=195.0
New linecode.BT_BT507_7_0_1_2 nphases=2 basefreq=60.0 units=km r1=1.268 x1=0.12551 normamps=195.0
New linecode.BT_BT507_7_0_1_3 nphases=3 basefreq=60.0 units=km r1=1.268 x1=0.12551 normamps=195.0
New linecode.BT_BT507_7_0_1_4 nphases=4 basefreq=60.0 units=km r1=1.268 x1=0.12551 normamps=195.0

New linecode.BT_BT508_5_0_1_1 nphases=1 basefreq=60.0 units=km r1=1.0994 x1=0.12359 normamps=261.3
New linecode.BT_BT508_5_0_1_2 nphases=2 basefreq=60.0 units=km r1=1.0994 x1=0.12359 normamps=261.3
New linecode.BT_BT508_5_0_1_3 nphases=3 basefreq=60.0 units=km r1=1.0994 x1=0.12359 normamps=261.3
New linecode.BT_BT508_5_0_1_4 nphases=4 basefreq=60.0 units=km r1=1.0994 x1=0.12359 normamps=261.3

New linecode.BT_BT509_5_0_1_1 nphases=1 basefreq=60.0 units=km r1=0.6913 x1=0.12075 normamps=301.6
New linecode.BT_BT509_5_0_1_2 nphases=2 basefreq=60.0 units=km r1=0.6913 x1=0.12075 normamps=301.6
New linecode.BT_BT509_5_0_1_3 nphases=3 basefreq=60.0 units=km r1=0.6913 x1=0.12075 normamps=301.6
New linecode.BT_BT509_5_0_1_4 nphases=4 basefreq=60.0 units=km r1=0.6913 x1=0.12075 normamps=301.6

New linecode.BT_BT509_7_0_1_1 nphases=1 basefreq=60.0 units=km r1=0.6913 x1=0.12075 normamps=301.6
New linecode.BT_BT509_7_0_1_2 nphases=2 basefreq=60.0 units=km r1=0.6913 x1=0.12075 normamps=301.6
New linecode.BT_BT509_7_0_1_3 nphases=3 basefreq=60.0 units=km r1=0.6913 x1=0.12075 normamps=301.6
New linecode.BT_BT509_7_0_1_4 nphases=4 basefreq=60.0 units=km r1=0.6913 x1=0.12075 normamps=301.6

New linecode.BT_BT511_5_0_1_1 nphases=1 basefreq=60.0 units=km r1=0.4018 x1=0.11701 normamps=405.6
New linecode.BT_BT511_5_0_1_2 nphases=2 basefreq=60.0 units=km r1=0.4018 x1=0.11701 normamps=405.6
New linecode.BT_BT511_5_0_1_3 nphases=3 basefreq=60.0 units=km r1=0.4018 x1=0.11701 normamps=405.6
New linecode.BT_BT511_5_0_1_4 nphases=4 basefreq=60.0 units=km r1=0.4018 x1=0.11701 normamps=405.6

New linecode.BT_BT511_7_0_1_1 nphases=1 basefreq=60.0 units=km r1=0.4018 x1=0.11701 normamps=405.6
New linecode.BT_BT511_7_0_1_2 nphases=2 basefreq=60.0 units=km r1=0.4018 x1=0.11701 normamps=405.6
New linecode.BT_BT511_7_0_1_3 nphases=3 basefreq=60.0 units=km r1=0.4018 x1=0.11701 normamps=405.6
New linecode.BT_BT511_7_0_1_4 nphases=4 basefreq=60.0 units=km r1=0.4018 x1=0.11701 normamps=405.6

New linecode.BT_BT513_5_0_1_1 nphases=1 basefreq=60.0 units=km r1=0.5147 x1=0.12139 normamps=501.8
New linecode.BT_BT513_5_0_1_2 nphases=2 basefreq=60.0 units=km r1=0.5147 x1=0.12139 normamps=501.8
New linecode.BT_BT513_5_0_1_3 nphases=3 basefreq=60.0 units=km r1=0.5147 x1=0.12139 normamps=501.8
New linecode.BT_BT513_5_0_1_4 nphases=4 basefreq=60.0 units=km r1=0.5147 x1=0.12139 normamps=501.8

New linecode.BT_BT513_7_0_1_1 nphases=1 basefreq=60.0 units=km r1=0.5147 x1=0.12139 normamps=501.8
New linecode.BT_BT513_7_0_1_2 nphases=2 basefreq=60.0 units=km r1=0.5147 x1=0.12139 normamps=501.8
New linecode.BT_BT513_7_0_1_3 nphases=3 basefreq=60.0 units=km r1=0.5147 x1=0.12139 normamps=501.8
New linecode.BT_BT513_7_0_1_4 nphases=4 basefreq=60.0 units=km r1=0.5147 x1=0.12139 normamps=501.8

New linecode.BT_BT514_5_0_1_1 nphases=1 basefreq=60.0 units=km r1=0.325 x1=0.11988 normamps=795.6
New linecode.BT_BT514_5_0_1_2 nphases=2 basefreq=60.0 units=km r1=0.325 x1=0.11988 normamps=795.6
New linecode.BT_BT514_5_0_1_3 nphases=3 basefreq=60.0 units=km r1=0.325 x1=0.11988 normamps=795.6
New linecode.BT_BT514_5_0_1_4 nphases=4 basefreq=60.0 units=km r1=0.325 x1=0.11988 normamps=795.6

New linecode.BT_BT514_7_0_1_1 nphases=1 basefreq=60.0 units=km r1=0.325 x1=0.11988 normamps=795.6
New linecode.BT_BT514_7_0_1_2 nphases=2 basefreq=60.0 units=km r1=0.325 x1=0.11988 normamps=795.6
New linecode.BT_BT514_7_0_1_3 nphases=3 basefreq=60.0 units=km r1=0.325 x1=0.11988 normamps=795.6
New linecode.BT_BT514_7_0_1_4 nphases=4 basefreq=60.0 units=km r1=0.325 x1=0.11988 normamps=795.6

New linecode.BT_BT517_5_0_1_1 nphases=1 basefreq=60.0 units=km r1=3.3818 x1=0.13498 normamps=122.2
New linecode.BT_BT517_5_0_1_2 nphases=2 basefreq=60.0 units=km r1=3.3818 x1=0.13498 normamps=122.2
New linecode.BT_BT517_5_0_1_3 nphases=3 basefreq=60.0 units=km r1=3.3818 x1=0.13498 normamps=122.2
New linecode.BT_BT517_5_0_1_4 nphases=4 basefreq=60.0 units=km r1=3.3818 x1=0.13498 normamps=122.2

New linecode.BT_BT517_7_0_1_1 nphases=1 basefreq=60.0 units=km r1=3.3818 x1=0.13498 normamps=122.2
New linecode.BT_BT517_7_0_1_2 nphases=2 basefreq=60.0 units=km r1=3.3818 x1=0.13498 normamps=122.2
New linecode.BT_BT517_7_0_1_3 nphases=3 basefreq=60.0 units=km r1=3.3818 x1=0.13498 normamps=122.2
New linecode.BT_BT517_7_0_1_4 nphases=4 basefreq=60.0 units=km r1=3.3818 x1=0.13498 normamps=122.2

New linecode.BT_BT518_5_0_1_1 nphases=1 basefreq=60.0 units=km r1=0.822 x1=0.1301 normamps=179.4
New linecode.BT_BT518_5_0_1_2 nphases=2 basefreq=60.0 units=km r1=0.822 x1=0.1301 normamps=179.4
New linecode.BT_BT518_5_0_1_3 nphases=3 basefreq=60.0 units=km r1=0.822 x1=0.1301 normamps=179.4
New linecode.BT_BT518_5_0_1_4 nphases=4 basefreq=60.0 units=km r1=0.822 x1=0.1301 normamps=179.4

New linecode.BT_BT518_7_0_1_1 nphases=1 basefreq=60.0 units=km r1=0.822 x1=0.1301 normamps=179.4
New linecode.BT_BT518_7_0_1_2 nphases=2 basefreq=60.0 units=km r1=0.822 x1=0.1301 normamps=179.4
New linecode.BT_BT518_7_0_1_3 nphases=3 basefreq=60.0 units=km r1=0.822 x1=0.1301 normamps=179.4
New linecode.BT_BT518_7_0_1_4 nphases=4 basefreq=60.0 units=km r1=0.822 x1=0.1301 normamps=179.4

New linecode.BT_BT520_5_0_1_1 nphases=1 basefreq=60.0 units=km r1=0.1675 x1=0.0461 normamps=665.6
New linecode.BT_BT520_5_0_1_2 nphases=2 basefreq=60.0 units=km r1=0.1675 x1=0.0461 normamps=665.6
New linecode.BT_BT520_5_0_1_3 nphases=3 basefreq=60.0 units=km r1=0.1675 x1=0.0461 normamps=665.6
New linecode.BT_BT520_5_0_1_4 nphases=4 basefreq=60.0 units=km r1=0.1675 x1=0.0461 normamps=665.6

New linecode.BT_BT520_7_0_1_1 nphases=1 basefreq=60.0 units=km r1=0.1675 x1=0.0461 normamps=665.6
New linecode.BT_BT520_7_0_1_2 nphases=2 basefreq=60.0 units=km r1=0.1675 x1=0.0461 normamps=665.6
New linecode.BT_BT520_7_0_1_3 nphases=3 basefreq=60.0 units=km r1=0.1675 x1=0.0461 normamps=665.6
New linecode.BT_BT520_7_0_1_4 nphases=4 basefreq=60.0 units=km r1=0.1675 x1=0.0461 normamps=665.6

New linecode.BT_BT521_5_0_1_1 nphases=1 basefreq=60.0 units=km r1=0.9662 x1=0.1344 normamps=221.0
New linecode.BT_BT521_5_0_1_2 nphases=2 basefreq=60.0 units=km r1=0.9662 x1=0.1344 normamps=221.0
New linecode.BT_BT521_5_0_1_3 nphases=3 basefreq=60.0 units=km r1=0.9662 x1=0.1344 normamps=221.0
New linecode.BT_BT521_5_0_1_4 nphases=4 basefreq=60.0 units=km r1=0.9662 x1=0.1344 normamps=221.0

New linecode.BT_BT521_7_0_1_1 nphases=1 basefreq=60.0 units=km r1=0.9662 x1=0.1344 normamps=221.0
New linecode.BT_BT521_7_0_1_2 nphases=2 basefreq=60.0 units=km r1=0.9662 x1=0.1344 normamps=221.0
New linecode.BT_BT521_7_0_1_3 nphases=3 basefreq=60.0 units=km r1=0.9662 x1=0.1344 normamps=221.0
New linecode.BT_BT521_7_0_1_4 nphases=4 basefreq=60.0 units=km r1=0.9662 x1=0.1344 normamps=221.0

New linecode.BT_BT801_4_0_3_1 nphases=1 basefreq=60.0 units=km r1=1.0429 x1=0.08178 normamps=128.7
New linecode.BT_BT801_4_0_3_2 nphases=2 basefreq=60.0 units=km r1=1.0429 x1=0.08178 normamps=128.7
New linecode.BT_BT801_4_0_3_3 nphases=3 basefreq=60.0 units=km r1=1.0429 x1=0.08178 normamps=128.7
New linecode.BT_BT801_4_0_3_4 nphases=4 basefreq=60.0 units=km r1=1.0429 x1=0.08178 normamps=128.7

New linecode.BT_BT802_4_0_3_1 nphases=1 basefreq=60.0 units=km r1=0.77016 x1=0.08347 normamps=159.9
New linecode.BT_BT802_4_0_3_2 nphases=2 basefreq=60.0 units=km r1=0.77016 x1=0.08347 normamps=159.9
New linecode.BT_BT802_4_0_3_3 nphases=3 basefreq=60.0 units=km r1=0.77016 x1=0.08347 normamps=159.9
New linecode.BT_BT802_4_0_3_4 nphases=4 basefreq=60.0 units=km r1=0.77016 x1=0.08347 normamps=159.9

New linecode.BT_BT803_4_0_4_1 nphases=1 basefreq=60.0 units=km r1=0.53226 x1=0.08001 normamps=191.1
New linecode.BT_BT803_4_0_4_2 nphases=2 basefreq=60.0 units=km r1=0.53226 x1=0.08001 normamps=191.1
New linecode.BT_BT803_4_0_4_3 nphases=3 basefreq=60.0 units=km r1=0.53226 x1=0.08001 normamps=191.1
New linecode.BT_BT803_4_0_4_4 nphases=4 basefreq=60.0 units=km r1=0.53226 x1=0.08001 normamps=191.1

New linecode.BT_BT805_4_0_4_1 nphases=1 basefreq=60.0 units=km r1=0.30398 x1=0.09113 normamps=261.3
New linecode.BT_BT805_4_0_4_2 nphases=2 basefreq=60.0 units=km r1=0.30398 x1=0.09113 normamps=261.3
New linecode.BT_BT805_4_0_4_3 nphases=3 basefreq=60.0 units=km r1=0.30398 x1=0.09113 normamps=261.3
New linecode.BT_BT805_4_0_4_4 nphases=4 basefreq=60.0 units=km r1=0.30398 x1=0.09113 normamps=261.3

New linecode.BT_BT806_4_0_4_1 nphases=1 basefreq=60.0 units=km r1=0.22639 x1=0.08652 normamps=292.5
New linecode.BT_BT806_4_0_4_2 nphases=2 basefreq=60.0 units=km r1=0.22639 x1=0.08652 normamps=292.5
New linecode.BT_BT806_4_0_4_3 nphases=3 basefreq=60.0 units=km r1=0.22639 x1=0.08652 normamps=292.5
New linecode.BT_BT806_4_0_4_4 nphases=4 basefreq=60.0 units=km r1=0.22639 x1=0.08652 normamps=292.5

New linecode.BT_BT807_4_0_3_1 nphases=1 basefreq=60.0 units=km r1=0.53226 x1=0.0897 normamps=260.0
New linecode.BT_BT807_4_0_3_2 nphases=2 basefreq=60.0 units=km r1=0.53226 x1=0.0897 normamps=260.0
New linecode.BT_BT807_4_0_3_3 nphases=3 basefreq=60.0 units=km r1=0.53226 x1=0.0897 normamps=260.0
New linecode.BT_BT807_4_0_3_4 nphases=4 basefreq=60.0 units=km r1=0.53226 x1=0.0897 normamps=260.0

New linecode.BT_BT809_4_0_4_1 nphases=1 basefreq=60.0 units=km r1=1.0429 x1=0.08178 normamps=143.0
New linecode.BT_BT809_4_0_4_2 nphases=2 basefreq=60.0 units=km r1=1.0429 x1=0.08178 normamps=143.0
New linecode.BT_BT809_4_0_4_3 nphases=3 basefreq=60.0 units=km r1=1.0429 x1=0.08178 normamps=143.0
New linecode.BT_BT809_4_0_4_4 nphases=4 basefreq=60.0 units=km r1=1.0429 x1=0.08178 normamps=143.0

New linecode.BT_BT810_4_0_4_1 nphases=1 basefreq=60.0 units=km r1=1.0429 x1=0.06979 normamps=143.0
New linecode.BT_BT810_4_0_4_2 nphases=2 basefreq=60.0 units=km r1=1.0429 x1=0.06979 normamps=143.0
New linecode.BT_BT810_4_0_4_3 nphases=3 basefreq=60.0 units=km r1=1.0429 x1=0.06979 normamps=143.0
New linecode.BT_BT810_4_0_4_4 nphases=4 basefreq=60.0 units=km r1=1.0429 x1=0.06979 normamps=143.0

New linecode.BT_BT811_4_0_3_1 nphases=1 basefreq=60.0 units=km r1=2.29487 x1=0.08214 normamps=123.5
New linecode.BT_BT811_4_0_3_2 nphases=2 basefreq=60.0 units=km r1=2.29487 x1=0.08214 normamps=123.5
New linecode.BT_BT811_4_0_3_3 nphases=3 basefreq=60.0 units=km r1=2.29487 x1=0.08214 normamps=123.5
New linecode.BT_BT811_4_0_3_4 nphases=4 basefreq=60.0 units=km r1=2.29487 x1=0.08214 normamps=123.5

New linecode.BT_BT812_4_0_4_1 nphases=1 basefreq=60.0 units=km r1=1.4418 x1=0.0889 normamps=140.4
New linecode.BT_BT812_4_0_4_2 nphases=2 basefreq=60.0 units=km r1=1.4418 x1=0.0889 normamps=140.4
New linecode.BT_BT812_4_0_4_3 nphases=3 basefreq=60.0 units=km r1=1.4418 x1=0.0889 normamps=140.4
New linecode.BT_BT812_4_0_4_4 nphases=4 basefreq=60.0 units=km r1=1.4418 x1=0.0889 normamps=140.4

New linecode.BT_BT813_4_0_4_1 nphases=1 basefreq=60.0 units=km r1=0.77016 x1=0.07973 normamps=208.0
New linecode.BT_BT813_4_0_4_2 nphases=2 basefreq=60.0 units=km r1=0.77016 x1=0.07973 normamps=208.0
New linecode.BT_BT813_4_0_4_3 nphases=3 basefreq=60.0 units=km r1=0.77016 x1=0.07973 normamps=208.0
New linecode.BT_BT813_4_0_4_4 nphases=4 basefreq=60.0 units=km r1=0.77016 x1=0.07973 normamps=208.0

New linecode.BT_BT814_4_0_3_1 nphases=1 basefreq=60.0 units=km r1=1.4418 x1=0.08327 normamps=162.5
New linecode.BT_BT814_4_0_3_2 nphases=2 basefreq=60.0 units=km r1=1.4418 x1=0.08327 normamps=162.5
New linecode.BT_BT814_4_0_3_3 nphases=3 basefreq=60.0 units=km r1=1.4418 x1=0.08327 normamps=162.5
New linecode.BT_BT814_4_0_3_4 nphases=4 basefreq=60.0 units=km r1=1.4418 x1=0.08327 normamps=162.5

New linecode.BT_BT815_4_0_4_1 nphases=1 basefreq=60.0 units=km r1=2.29487 x1=0.08214 normamps=106.6
New linecode.BT_BT815_4_0_4_2 nphases=2 basefreq=60.0 units=km r1=2.29487 x1=0.08214 normamps=106.6
New linecode.BT_BT815_4_0_4_3 nphases=3 basefreq=60.0 units=km r1=2.29487 x1=0.08214 normamps=106.6
New linecode.BT_BT815_4_0_4_4 nphases=4 basefreq=60.0 units=km r1=2.29487 x1=0.08214 normamps=106.6

New linecode.BT_BT816_4_0_2_1 nphases=1 basefreq=60.0 units=km r1=1.4418 x1=0.08327 normamps=162.5
New linecode.BT_BT816_4_0_2_2 nphases=2 basefreq=60.0 units=km r1=1.4418 x1=0.08327 normamps=162.5
New linecode.BT_BT816_4_0_2_3 nphases=3 basefreq=60.0 units=km r1=1.4418 x1=0.08327 normamps=162.5
New linecode.BT_BT816_4_0_2_4 nphases=4 basefreq=60.0 units=km r1=1.4418 x1=0.08327 normamps=162.5

New linecode.BT_BTC01_5_0_1_1 nphases=1 basefreq=60.0 units=km r1=0.15 x1=1e-05 normamps=290.0
New linecode.BT_BTC01_5_0_1_2 nphases=2 basefreq=60.0 units=km r1=0.15 x1=1e-05 normamps=290.0
New linecode.BT_BTC01_5_0_1_3 nphases=3 basefreq=60.0 units=km r1=0.15 x1=1e-05 normamps=290.0
New linecode.BT_BTC01_5_0_1_4 nphases=4 basefreq=60.0 units=km r1=0.15 x1=1e-05 normamps=290.0

New linecode.BT_BTC01_7_0_1_1 nphases=1 basefreq=60.0 units=km r1=0.15 x1=1e-05 normamps=290.0
New linecode.BT_BTC01_7_0_1_2 nphases=2 basefreq=60.0 units=km r1=0.15 x1=1e-05 normamps=290.0
New linecode.BT_BTC01_7_0_1_3 nphases=3 basefreq=60.0 units=km r1=0.15 x1=1e-05 normamps=290.0
New linecode.BT_BTC01_7_0_1_4 nphases=4 basefreq=60.0 units=km r1=0.15 x1=1e-05 normamps=290.0

New linecode.BT_BTC02_7_0_1_1 nphases=1 basefreq=60.0 units=km r1=0.15 x1=1e-05 normamps=290.0
New linecode.BT_BTC02_7_0_1_2 nphases=2 basefreq=60.0 units=km r1=0.15 x1=1e-05 normamps=290.0
New linecode.BT_BTC02_7_0_1_3 nphases=3 basefreq=60.0 units=km r1=0.15 x1=1e-05 normamps=290.0
New linecode.BT_BTC02_7_0_1_4 nphases=4 basefreq=60.0 units=km r1=0.15 x1=1e-05 normamps=290.0

New linecode.BT_BTF01_7_0_1_1 nphases=1 basefreq=60.0 units=km r1=0.15 x1=1e-05 normamps=290.0
New linecode.BT_BTF01_7_0_1_2 nphases=2 basefreq=60.0 units=km r1=0.15 x1=1e-05 normamps=290.0
New linecode.BT_BTF01_7_0_1_3 nphases=3 basefreq=60.0 units=km r1=0.15 x1=1e-05 normamps=290.0
New linecode.BT_BTF01_7_0_1_4 nphases=4 basefreq=60.0 units=km r1=0.15 x1=1e-05 normamps=290.0

New linecode.BT_BTH01_5_0_1_1 nphases=1 basefreq=60.0 units=km r1=0.15 x1=1e-05 normamps=290.0
New linecode.BT_BTH01_5_0_1_2 nphases=2 basefreq=60.0 units=km r1=0.15 x1=1e-05 normamps=290.0
New linecode.BT_BTH01_5_0_1_3 nphases=3 basefreq=60.0 units=km r1=0.15 x1=1e-05 normamps=290.0
New linecode.BT_BTH01_5_0_1_4 nphases=4 basefreq=60.0 units=km r1=0.15 x1=1e-05 normamps=290.0

New linecode.BT_BTH01_7_0_1_1 nphases=1 basefreq=60.0 units=km r1=0.15 x1=1e-05 normamps=290.0
New linecode.BT_BTH01_7_0_1_2 nphases=2 basefreq=60.0 units=km r1=0.15 x1=1e-05 normamps=290.0
New linecode.BT_BTH01_7_0_1_3 nphases=3 basefreq=60.0 units=km r1=0.15 x1=1e-05 normamps=290.0
New linecode.BT_BTH01_7_0_1_4 nphases=4 basefreq=60.0 units=km r1=0.15 x1=1e-05 normamps=290.0

New linecode.BT_BTH02_5_0_1_1 nphases=1 basefreq=60.0 units=km r1=0.15 x1=1e-05 normamps=290.0
New linecode.BT_BTH02_5_0_1_2 nphases=2 basefreq=60.0 units=km r1=0.15 x1=1e-05 normamps=290.0
New linecode.BT_BTH02_5_0_1_3 nphases=3 basefreq=60.0 units=km r1=0.15 x1=1e-05 normamps=290.0
New linecode.BT_BTH02_5_0_1_4 nphases=4 basefreq=60.0 units=km r1=0.15 x1=1e-05 normamps=290.0

New linecode.BT_BTH02_7_0_1_1 nphases=1 basefreq=60.0 units=km r1=0.15 x1=1e-05 normamps=290.0
New linecode.BT_BTH02_7_0_1_2 nphases=2 basefreq=60.0 units=km r1=0.15 x1=1e-05 normamps=290.0
New linecode.BT_BTH02_7_0_1_3 nphases=3 basefreq=60.0 units=km r1=0.15 x1=1e-05 normamps=290.0
New linecode.BT_BTH02_7_0_1_4 nphases=4 basefreq=60.0 units=km r1=0.15 x1=1e-05 normamps=290.0

New linecode.BT_BTH03_5_0_1_1 nphases=1 basefreq=60.0 units=km r1=0.15 x1=1e-05 normamps=290.0
New linecode.BT_BTH03_5_0_1_2 nphases=2 basefreq=60.0 units=km r1=0.15 x1=1e-05 normamps=290.0
New linecode.BT_BTH03_5_0_1_3 nphases=3 basefreq=60.0 units=km r1=0.15 x1=1e-05 normamps=290.0
New linecode.BT_BTH03_5_0_1_4 nphases=4 basefreq=60.0 units=km r1=0.15 x1=1e-05 normamps=290.0

New linecode.BT_BTH03_7_0_1_1 nphases=1 basefreq=60.0 units=km r1=0.15 x1=1e-05 normamps=290.0
New linecode.BT_BTH03_7_0_1_2 nphases=2 basefreq=60.0 units=km r1=0.15 x1=1e-05 normamps=290.0
New linecode.BT_BTH03_7_0_1_3 nphases=3 basefreq=60.0 units=km r1=0.15 x1=1e-05 normamps=290.0
New linecode.BT_BTH03_7_0_1_4 nphases=4 basefreq=60.0 units=km r1=0.15 x1=1e-05 normamps=290.0

New linecode.BT_BTJ01_5_0_1_1 nphases=1 basefreq=60.0 units=km r1=0.15 x1=1e-05 normamps=290.0
New linecode.BT_BTJ01_5_0_1_2 nphases=2 basefreq=60.0 units=km r1=0.15 x1=1e-05 normamps=290.0
New linecode.BT_BTJ01_5_0_1_3 nphases=3 basefreq=60.0 units=km r1=0.15 x1=1e-05 normamps=290.0
New linecode.BT_BTJ01_5_0_1_4 nphases=4 basefreq=60.0 units=km r1=0.15 x1=1e-05 normamps=290.0

New linecode.BT_BTJ01_7_0_1_1 nphases=1 basefreq=60.0 units=km r1=0.15 x1=1e-05 normamps=290.0
New linecode.BT_BTJ01_7_0_1_2 nphases=2 basefreq=60.0 units=km r1=0.15 x1=1e-05 normamps=290.0
New linecode.BT_BTJ01_7_0_1_3 nphases=3 basefreq=60.0 units=km r1=0.15 x1=1e-05 normamps=290.0
...