ULAU15/ssdMT_ULAU15.dss
New line.mt528161 phases=3 bus1=161980944.1.2.3 bus2=158898046.1.2.3 linecode=CAB204_3_3_3 length=0.10584600000000001 units=km 
New line.mt528175 phases=1 bus1=158898148.3 bus2=158898149.3 linecode=CAB102_3_1_1 length=0.075134 units=km 
New line.mt528182 phases=3 bus1=173876065.1.2.3 bus2=2688711B.1.2.3 linecode=CAB202_3_3_3 length=0.015026999999999999 units=km 
New line.mt535182 phases=3 bus1=1360321B.1.2.3 bus2=1360328B.1.2.3 linecode=CAB102_3_3_3 length=0.033103 units=km 
New line.mt535189 phases=3 bus1=1360335B.1.2.3 bus2=1360328B.1.2.3 linecode=CAB102_3_3_3 length=0.032231 units=km 
New line.mt535196 phases=3 bus1=1360342B.1.2.3 bus2=1360335B.1.2.3 linecode=CAB102_3_3_3 length=0.009481999999999999 units=km 
New line.mt535203 phases=3 bus1=1360342B.1.2.3 bus2=179442773.1.2.3 linecode=CAB102_3_3_3 length=0.029513 units=km 
New line.mt535210 phases=3 bus1=179442772.1.2.3 bus2=179442773.1.2.3 linecode=CAB102_3_3_3 length=0.03087 units=km 
New line.mt535217 phases=3 bus1=179442771.1.2.3 bus2=179442772.1.2.3 linecode=CAB103_3_3_3 length=0.029513 units=km 
New line.mt535336 phases=3 bus1=179442769.1.2.3 bus2=5715077.1.2.3 linecode=CAB103_3_3_3 length=0.036215000000000004 units=km 
New line.mt535343 phases=3 bus1=179442769.1.2.3 bus2=179442770.1.2.3 linecode=CAB103_3_3_3 length=0.027280000000000002 units=km 
New line.mt535350 phases=3 bus1=179442769.1.2.3 bus2=1360622B.1.2.3 linecode=CAB102_3_3_3 length=0.032262 units=km 
New line.mt535357 phases=3 bus1=1360608B.1.2.3 bus2=179442771.1.2.3 linecode=CAB102_3_3_3 length=0.010435 units=km 
New line.mt535364 phases=3 bus1=1360608B.1.2.3 bus2=179442770.1.2.3 linecode=CAB102_3_3_3 length=0.025046 units=km 
New line.mt535371 phases=3 bus1=1360622B.1.2.3 bus2=1360636B.1.2.3 linecode=CAB102_3_3_3 length=0.032262 units=km 
New line.mt535378 phases=3 bus1=179442768.1.2.3 bus2=1360636B.1.2.3 linecode=CAB102_3_3_3 length=0.031304 units=km 
New line.mt535385 phases=3 bus1=158898454.1.2.3 bus2=179442768.1.2.3 linecode=CAB102_3_3_3 length=0.032262 units=km 
New line.mt535392 phases=3 bus1=158898462.1.2.3 bus2=158898463.1.2.3 linecode=CAB102_3_3_3 length=0.016754 units=km 
New line.mt535399 phases=3 bus1=1360678B.1.2.3 bus2=158898454.1.2.3 linecode=CAB102_3_3_3 length=0.032262 units=km 
New line.mt535406 phases=3 bus1=1360685B.1.2.3 bus2=158898465.1.2.3 linecode=CAB102_3_3_3 length=0.055942 units=km 
New line.mt535413 phases=3 bus1=158898464.1.2.3 bus2=1360685B.1.2.3 linecode=CAB102_3_3_3 length=0.022348 units=km 
New line.mt535420 phases=3 bus1=179442767.1.2.3 bus2=1360678B.1.2.3 linecode=CAB102_3_3_3 length=0.032555 units=km 
New line.mt535427 phases=3 bus1=179442767.1.2.3 bus2=158898455.1.2.3 linecode=CAB102_3_3_3 length=0.022549 units=km 
New line.mt535434 phases=3 bus1=1360720B.1.2.3 bus2=179442767.1.2.3 linecode=CAB102_3_3_3 length=0.035673 units=km 
New line.mt535441 phases=3 bus1=1360720B.1.2.3 bus2=179442766.1.2.3 linecode=CAB102_3_3_3 length=0.033521999999999996 units=km 
New line.mt535448 phases=3 bus1=178126211.1.2.3 bus2=1360762B.1.2.3 linecode=CAB102_3_3_3 length=0.034694 units=km 
New line.mt535455 phases=3 bus1=179442782.1.2.3 bus2=1360762B.1.2.3 linecode=CAB102_3_3_3 length=0.034694 units=km 
New line.mt535462 phases=3 bus1=179442782.1.2.3 bus2=1360776B.1.2.3 linecode=CAB102_3_3_3 length=0.030577 units=km 
New line.mt535469 phases=3 bus1=1360776B.1.2.3 bus2=179442784.1.2.3 linecode=CAB102_3_3_3 length=0.031558 units=km 
New line.mt535476 phases=3 bus1=1360783B.1.2.3 bus2=179442782.1.2.3 linecode=CAB102_3_3_3 length=0.009429 units=km 
New line.mt535483 phases=3 bus1=1360783B.1.2.3 bus2=1360874B.1.2.3 linecode=CAB102_3_3_3 length=0.019225000000000003 units=km 
New line.mt535490 phases=3 bus1=1360874B.1.2.3 bus2=1360909B.1.2.3 linecode=CAB102_3_3_3 length=0.018428999999999997 units=km 
New line.mt535497 phases=3 bus1=179442780.1.2.3 bus2=1360909B.1.2.3 linecode=CAB102_3_3_3 length=0.007068 units=km 
New line.mt535504 phases=3 bus1=179442780.1.2.3 bus2=1360916B.1.2.3 linecode=CAB102_3_3_3 length=0.008058 units=km 
New line.mt535511 phases=3 bus1=179442780.1.2.3 bus2=1360930B.1.2.3 linecode=CAB102_3_3_3 length=0.024502 units=km 
New line.mt535518 phases=3 bus1=1360930B.1.2.3 bus2=179442783.1.2.3 linecode=CAB102_3_3_3 length=0.030577 units=km 
New line.mt535525 phases=3 bus1=1360958B.1.2.3 bus2=179442780.1.2.3 linecode=CAB102_3_3_3 length=0.023332000000000002 units=km 
New line.mt535553 phases=3 bus1=1361070B.1.2.3 bus2=1360958B.1.2.3 linecode=CAB102_3_3_3 length=0.030577 units=km 
New line.mt535560 phases=3 bus1=179442778.1.2.3 bus2=1361070B.1.2.3 linecode=CAB102_3_3_3 length=0.006320999999999999 units=km 
New line.mt535567 phases=3 bus1=179442778.1.2.3 bus2=1361077B.1.2.3 linecode=CAB102_3_3_3 length=0.00608 units=km 
New line.mt535574 phases=3 bus1=179442778.1.2.3 bus2=1361091B.1.2.3 linecode=CAB102_3_3_3 length=0.025696 units=km 
New line.mt535581 phases=3 bus1=1361091B.1.2.3 bus2=179442781.1.2.3 linecode=CAB102_3_3_3 length=0.031558 units=km 
New line.mt535588 phases=3 bus1=1361112B.1.2.3 bus2=179442778.1.2.3 linecode=CAB102_3_3_3 length=0.023332000000000002 units=km 
New line.mt535595 phases=3 bus1=158898431.1.2.3 bus2=1361196B.1.2.3 linecode=CABA06_3_3_3 length=0.029598 units=km 
New line.mt535602 phases=3 bus1=1361196B.1.2.3 bus2=1361203B.1.2.3 linecode=CABA06_3_3_3 length=0.029598 units=km 
New line.mt535609 phases=3 bus1=1361210B.1.2.3 bus2=1361203B.1.2.3 linecode=CABA06_3_3_3 length=0.029598 units=km 
New line.mt535616 phases=3 bus1=1361217B.1.2.3 bus2=1361210B.1.2.3 linecode=CABA06_3_3_3 length=0.030577 units=km 
New line.mt535630 phases=3 bus1=1361224B.1.2.3 bus2=1362099B.1.2.3 linecode=CABA08_3_3_3 length=0.02862 units=km 
New line.mt535644 phases=3 bus1=1361231B.1.2.3 bus2=158898427.1.2.3 linecode=CABA08_3_3_3 length=0.035673 units=km 
New line.mt535651 phases=3 bus1=164854100.1.2.3 bus2=1361273B.1.2.3 linecode=CAB102_3_3_3 length=0.029598 units=km 
New line.mt535658 phases=3 bus1=1361273B.1.2.3 bus2=1361280B.1.2.3 linecode=CAB102_3_3_3 length=0.029598 units=km 
New line.mt535665 phases=3 bus1=1361287B.1.2.3 bus2=1361280B.1.2.3 linecode=CAB102_3_3_3 length=0.027444 units=km 
New line.mt535672 phases=3 bus1=1361294B.1.2.3 bus2=1361287B.1.2.3 linecode=CAB102_3_3_3 length=0.02862 units=km 
New line.mt535679 phases=3 bus1=164854093.1.2.3 bus2=164854099.1.2.3 linecode=CABA08_3_3_3 length=0.03254 units=km 
New line.mt535686 phases=3 bus1=164854093.1.2.3 bus2=1361294B.1.2.3 linecode=CAB102_3_3_3 length=0.009429 units=km 
New line.mt535693 phases=3 bus1=164854093.1.2.3 bus2=1361308B.1.2.3 linecode=CABA08_3_3_3 length=0.030577 units=km 
New line.mt535700 phases=3 bus1=1361308B.1.2.3 bus2=164854092.1.2.3 linecode=CABA08_3_3_3 length=0.024502 units=km 
New line.mt535714 phases=3 bus1=164854094.1.2.3 bus2=1361371B.1.2.3 linecode=CABA06_3_3_3 length=0.029816 units=km 
New line.mt535721 phases=3 bus1=1361371B.1.2.3 bus2=1361378B.1.2.3 linecode=CABA06_3_3_3 length=0.027444 units=km 
New line.mt535728 phases=3 bus1=1361385B.1.2.3 bus2=1361378B.1.2.3 linecode=CABA06_3_3_3 length=0.029598 units=km 
New line.mt535735 phases=3 bus1=1361392B.1.2.3 bus2=1361385B.1.2.3 linecode=CABA06_3_3_3 length=0.02862 units=km 
New line.mt535742 phases=3 bus1=1361399B.1.2.3 bus2=158898417.1.2.3 linecode=CABA08_3_3_3 length=0.025481 units=km 
New line.mt535749 phases=3 bus1=158898416.1.2.3 bus2=158898414.1.2.3 linecode=CABA08_3_3_3 length=0.029412 units=km 
New line.mt535756 phases=3 bus1=164854095.1.2.3 bus2=164854096.1.2.3 linecode=CAB902_4_3_3 length=0.036993000000000005 units=km 
New line.mt535763 phases=3 bus1=1361455B.1.2.3 bus2=1361112B.1.2.3 linecode=CAB102_3_3_3 length=0.028427 units=km 
New line.mt535770 phases=3 bus1=179442777.1.2.3 bus2=1361455B.1.2.3 linecode=CAB102_3_3_3 length=0.00608 units=km 
New line.mt535777 phases=3 bus1=179442777.1.2.3 bus2=1361462B.1.2.3 linecode=CAB102_3_3_3 length=0.00608 units=km 
New line.mt535784 phases=3 bus1=179442777.1.2.3 bus2=1361483B.1.2.3 linecode=CAB102_3_3_3 length=0.026462 units=km 
New line.mt535791 phases=3 bus1=1361483B.1.2.3 bus2=1361490B.1.2.3 linecode=CAB102_3_3_3 length=0.03254 units=km 
New line.mt535798 phases=3 bus1=1361490B.1.2.3 bus2=179442779.1.2.3 linecode=CAB102_3_3_3 length=0.033521999999999996 units=km 
New line.mt535805 phases=3 bus1=179442776.1.2.3 bus2=179442777.1.2.3 linecode=CAB102_3_3_3 length=0.023524 units=km 
New line.mt535980 phases=3 bus1=158898418.1.2.3 bus2=1361896B.1.2.3 linecode=CAB102_3_3_3 length=0.02862 units=km 
New line.mt535987 phases=3 bus1=1361903B.1.2.3 bus2=1361896B.1.2.3 linecode=CAB102_3_3_3 length=0.027444 units=km 
New line.mt535994 phases=3 bus1=1361910B.1.2.3 bus2=1361903B.1.2.3 linecode=CAB102_3_3_3 length=0.029598 units=km 
New line.mt536001 phases=3 bus1=158898414.1.2.3 bus2=1361910B.1.2.3 linecode=CAB102_3_3_3 length=0.007207 units=km 
New line.mt536008 phases=3 bus1=158898414.1.2.3 bus2=1361924B.1.2.3 linecode=CABA08_3_3_3 length=0.030577 units=km 
New line.mt536015 phases=3 bus1=1361924B.1.2.3 bus2=158898413.1.2.3 linecode=CABA08_3_3_3 length=0.030577 units=km 
New line.mt536064 phases=3 bus1=160119083.1.2.3 bus2=160118594.1.2.3 linecode=CAB107_3_3_3 length=0.037834000000000007 units=km 
New line.mt536071 phases=3 bus1=1362022B.1.2.3 bus2=160119083.1.2.3 linecode=CAB107_3_3_3 length=0.033716 units=km 
New line.mt536078 phases=3 bus1=1362029B.1.2.3 bus2=1362022B.1.2.3 linecode=CAB107_3_3_3 length=0.030577 units=km 
New line.mt536085 phases=3 bus1=160119082.1.2.3 bus2=158898439.1.2.3 linecode=CAB103_3_3_3 length=0.029412 units=km 
New line.mt536092 phases=3 bus1=1362043B.1.2.3 bus2=1362029B.1.2.3 linecode=CAB107_3_3_3 length=0.029598 units=km 
New line.mt536099 phases=3 bus1=160119079.1.2.3 bus2=160119078.1.2.3 linecode=CABA08_3_3_3 length=0.030577 units=km 
New line.mt536106 phases=3 bus1=158898432.1.2.3 bus2=158898430.1.2.3 linecode=CABA08_3_3_3 length=0.029598 units=km 
New line.mt536113 phases=3 bus1=158898430.1.2.3 bus2=1362071B.1.2.3 linecode=CABA08_3_3_3 length=0.031558 units=km 
New line.mt536120 phases=3 bus1=1362078B.1.2.3 bus2=1362071B.1.2.3 linecode=CABA08_3_3_3 length=0.033521999999999996 units=km 
New line.mt536127 phases=3 bus1=1362092B.1.2.3 bus2=1362078B.1.2.3 linecode=CABA08_3_3_3 length=0.031763 units=km 
New line.mt536134 phases=3 bus1=1362099B.1.2.3 bus2=1362092B.1.2.3 linecode=CABA08_3_3_3 length=0.030396999999999997 units=km 
New line.mt536141 phases=3 bus1=160118600.1.2.3 bus2=160118601.1.2.3 linecode=CAB107_3_3_3 length=0.026462 units=km 
New line.mt536148 phases=3 bus1=160118601.1.2.3 bus2=2813290C.1.2.3 linecode=CABA08_3_3_3 length=0.033716 units=km 
New line.mt536155 phases=3 bus1=160119081.1.2.3 bus2=160119080.1.2.3 linecode=CAB107_3_3_3 length=0.010045 units=km 
New line.mt536260 phases=3 bus1=160119087.1.2.3 bus2=160119086.1.2.3 linecode=CAB107_3_3_3 length=0.036654000000000006 units=km 
New line.mt536274 phases=3 bus1=160119086.1.2.3 bus2=1362344B.1.2.3 linecode=CAB102_3_3_3 length=0.034694 units=km 
New line.mt536281 phases=3 bus1=160119086.1.2.3 bus2=160119085.1.2.3 linecode=CAB107_3_3_3 length=0.011994 units=km 
New line.mt536288 phases=3 bus1=1362344B.1.2.3 bus2=160119088.1.2.3 linecode=CAB102_3_3_3 length=0.035673 units=km 
New line.mt536295 phases=3 bus1=160119085.1.2.3 bus2=160119081.1.2.3 linecode=CAB904_3_3_3 length=0.032997 units=km 
New line.mt536498 phases=3 bus1=1362911B.1.2.3 bus2=158898415.1.2.3 linecode=CAB103_3_3_3 length=0.03254 units=km 
New line.mt536505 phases=3 bus1=1362918B.1.2.3 bus2=1362911B.1.2.3 linecode=CAB103_3_3_3 length=0.031558 units=km 
New line.mt536512 phases=3 bus1=158898413.1.2.3 bus2=1362918B.1.2.3 linecode=CAB103_3_3_3 length=0.009215 units=km 
New line.mt536519 phases=3 bus1=158898413.1.2.3 bus2=1362932B.1.2.3 linecode=CABA08_3_3_3 length=0.029598 units=km 
New line.mt536708 phases=3 bus1=1363373B.1.2.3 bus2=164854097.1.2.3 linecode=CAB102_3_3_3 length=0.036654000000000006 units=km 
New line.mt536715 phases=3 bus1=164854097.1.2.3 bus2=164854098.1.2.3 linecode=CAB102_3_3_3 length=0.035673 units=km 
New line.mt536736 phases=3 bus1=164854096.1.2.3 bus2=1363373B.1.2.3 linecode=CAB102_3_3_3 length=0.01104 units=km 
New line.mt540292 phases=3 bus1=158898370.1.2.3 bus2=158898371.1.2.3 linecode=CABA08_3_3_3 length=0.032737999999999996 units=km 
New line.mt540299 phases=3 bus1=1370471B.1.2.3 bus2=158898372.1.2.3 linecode=CAB107_3_3_3 length=0.031558 units=km 
New line.mt540306 phases=3 bus1=1370478B.1.2.3 bus2=2801971B.1.2.3 linecode=CAB107_3_3_3 length=0.033521999999999996 units=km 
New line.mt540313 phases=3 bus1=1370485B.1.2.3 bus2=2801978B.1.2.3 linecode=CAB107_3_3_3 length=0.031558 units=km 
New line.mt540320 phases=3 bus1=1370492B.1.2.3 bus2=2801992B.1.2.3 linecode=CAB107_3_3_3 length=0.027643 units=km 
New line.mt540474 phases=3 bus1=165614083.1.2.3 bus2=1829461C.1.2.3 linecode=CABA08_3_3_3 length=0.043906999999999995 units=km 
New line.mt737573 phases=1 bus1=174001347.3 bus2=2866161B.3 linecode=CAB102_3_1_1 length=0.034508000000000004 units=km 
New line.mt737580 phases=1 bus1=1738734B.3 bus2=2866168B.3 linecode=CAB102_3_1_1 length=0.035491999999999996 units=km 
New line.mt737587 phases=1 bus1=1738741B.3 bus2=2866175B.3 linecode=CAB102_3_1_1 length=0.035491999999999996 units=km 
New line.mt737594 phases=1 bus1=1738748B.3 bus2=2866182B.3 linecode=CAB102_3_1_1 length=0.039603 units=km 
New line.mt737601 phases=1 bus1=1738755B.3 bus2=2866189B.3 linecode=CAB102_3_1_1 length=0.039791 units=km 
New line.mt737608 phases=1 bus1=1738762B.3 bus2=2866154B.3 linecode=CAB102_3_1_1 length=0.034506999999999996 units=km 
New line.mt737615 phases=1 bus1=174001345.3 bus2=161975838.3 linecode=CAB102_3_1_1 length=0.037637000000000004 units=km 
New line.mt737622 phases=1 bus1=174001345.3 bus2=2866147B.3 linecode=CAB102_3_1_1 length=0.034506999999999996 units=km 
New line.mt737629 phases=1 bus1=162025505.3 bus2=2866126B.3 linecode=CAB102_3_1_1 length=0.036655 units=km 
New line.mt737636 phases=1 bus1=1738783B.3 bus2=2866119B.3 linecode=CAB102_3_1_1 length=0.036655 units=km 
New line.mt737643 phases=1 bus1=1738790B.3 bus2=2865804B.3 linecode=CAB102_3_1_1 length=0.034695000000000004 units=km 
New line.mt737650 phases=1 bus1=1738797B.3 bus2=2865797B.3 linecode=CAB102_3_1_1 length=0.035675 units=km 
New line.mt737657 phases=1 bus1=1738832B.3 bus2=2866210B.3 linecode=CAB102_3_1_1 length=0.040771 units=km 
New line.mt737664 phases=1 bus1=1738839B.3 bus2=2866203B.3 linecode=CAB102_3_1_1 length=0.038619 units=km 
New line.mt737671 phases=1 bus1=1738846B.3 bus2=2866196B.3 linecode=CAB102_3_1_1 length=0.039603 units=km 
New line.mt737678 phases=1 bus1=1738860B.3 bus2=162025506.3 linecode=CAB102_3_1_1 length=0.038619 units=km 
New line.mt737685 phases=1 bus1=1738867B.3 bus2=2866105B.3 linecode=CAB102_3_1_1 length=0.035491999999999996 units=km 
New line.mt737692 phases=1 bus1=1738874B.3 bus2=2866112B.3 linecode=CAB102_3_1_1 length=0.038619 units=km 
New line.mt737699 phases=1 bus1=1738937B.3 bus2=2865867B.3 linecode=CAB102_3_1_1 length=0.034506999999999996 units=km 
New line.mt737706 phases=1 bus1=1738944B.3 bus2=2865874B.3 linecode=CAB102_3_1_1 length=0.037637000000000004 units=km 
New line.mt737713 phases=1 bus1=1738951B.3 bus2=2865881B.3 linecode=CAB102_3_1_1 length=0.035491999999999996 units=km 
New line.mt737720 phases=1 bus1=1738958B.3 bus2=2865888B.3 linecode=CAB102_3_1_1 length=0.036655 units=km 
New line.mt737727 phases=1 bus1=158898341.3 bus2=2865923B.3 linecode=CAB102_3_1_1 length=0.036655 units=km 
New line.mt737734 phases=1 bus1=158898340.3 bus2=2865916B.3 linecode=CAB102_3_1_1 length=0.035675 units=km 
New line.mt737741 phases=1 bus1=174001344.3 bus2=2865790B.3 linecode=CAB102_3_1_1 length=0.034506999999999996 units=km 
New line.mt737748 phases=1 bus1=174001344.3 bus2=2865902B.3 linecode=CAB102_3_1_1 length=0.037637000000000004 units=km 
New line.mt737755 phases=1 bus1=174001344.3 bus2=2865909B.3 linecode=CAB102_3_1_1 length=0.035675 units=km 
New line.mt737762 phases=1 bus1=1738986B.3 bus2=2865895B.3 linecode=CAB102_3_1_1 length=0.035491999999999996 units=km 
New line.mt737769 phases=1 bus1=1738993B.3 bus2=2865734B.3 linecode=CAB102_3_1_1 length=0.035675 units=km 
New line.mt737776 phases=1 bus1=1739000B.3 bus2=2865937B.3 linecode=CAB102_3_1_1 length=0.034508000000000004 units=km 
New line.mt737783 phases=1 bus1=1739007B.3 bus2=2865930B.3 linecode=CAB102_3_1_1 length=0.034508000000000004 units=km 
New line.mt737790 phases=1 bus1=1739014B.3 bus2=2865944B.3 linecode=CAB102_3_1_1 length=0.038619 units=km 
New line.mt737797 phases=1 bus1=1739021B.3 bus2=2865958B.3 linecode=CAB102_3_1_1 length=0.038619 units=km 
New line.mt737804 phases=3 bus1=158897929.1.2.3 bus2=2865713B.1.2.3 linecode=CAB107_3_3_3 length=0.035491999999999996 units=km 
New line.mt737811 phases=3 bus1=1739035B.1.2.3 bus2=2865748B.1.2.3 linecode=CAB107_3_3_3 length=0.038619 units=km 
New line.mt737818 phases=3 bus1=1739042B.1.2.3 bus2=2865755B.1.2.3 linecode=CAB107_3_3_3 length=0.039791 units=km 
New line.mt737825 phases=3 bus1=1739049B.1.2.3 bus2=2865762B.1.2.3 linecode=CAB107_3_3_3 length=0.035675 units=km 
New line.mt737832 phases=3 bus1=158897930.1.2.3 bus2=2865706B.1.2.3 linecode=CAB107_3_3_3 length=0.039603 units=km 
New line.mt737839 phases=1 bus1=174001331.3 bus2=174001324.3 linecode=CAB102_3_1_1 length=0.036655 units=km 
New line.mt737846 phases=1 bus1=1739070B.3 bus2=2865727B.3 linecode=CAB102_3_1_1 length=0.033524 units=km 
New line.mt737853 phases=3 bus1=1739077B.1.2.3 bus2=2865699B.1.2.3 linecode=CAB107_3_3_3 length=0.034506999999999996 units=km 
New line.mt737860 phases=3 bus1=1739084B.1.2.3 bus2=2865692B.1.2.3 linecode=CAB107_3_3_3 length=0.033524 units=km 
New line.mt737867 phases=3 bus1=1739091B.1.2.3 bus2=2865685B.1.2.3 linecode=CAB107_3_3_3 length=0.033524 units=km 
New line.mt737874 phases=3 bus1=158897931.1.2.3 bus2=2865664B.1.2.3 linecode=CAB107_3_3_3 length=0.038451 units=km 
New line.mt737881 phases=3 bus1=1739105B.1.2.3 bus2=2865671B.1.2.3 linecode=CAB107_3_3_3 length=0.038619 units=km 
New line.mt737888 phases=3 bus1=1739112B.1.2.3 bus2=2865678B.1.2.3 linecode=CAB107_3_3_3 length=0.034508000000000004 units=km 
New line.mt737895 phases=3 bus1=1739119B.1.2.3 bus2=2865657B.1.2.3 linecode=CAB107_3_3_3 length=0.038619 units=km 
New line.mt737902 phases=3 bus1=1739126B.1.2.3 bus2=158897932.1.2.3 linecode=CAB107_3_3_3 length=0.038619 units=km 
New line.mt737909 phases=3 bus1=158897937.1.2.3 bus2=2865594B.1.2.3 linecode=CAB107_3_3_3 length=0.035675 units=km 
New line.mt737916 phases=3 bus1=1739140B.1.2.3 bus2=2865601B.1.2.3 linecode=CAB107_3_3_3 length=0.035675 units=km 
New line.mt737923 phases=3 bus1=1739147B.1.2.3 bus2=1739154B.1.2.3 linecode=CAB107_3_3_3 length=0.070177 units=km 
New line.mt737930 phases=3 bus1=1739154B.1.2.3 bus2=158897939.1.2.3 linecode=CAB107_3_3_3 length=0.08120999999999999 units=km 
New line.mt737937 phases=3 bus1=158897939.1.2.3 bus2=158897940.1.2.3 linecode=CAB207_3_3_3 length=0.040179 units=km 
New line.mt737944 phases=1 bus1=1739189B.3 bus2=2866007B.3 linecode=CAB102_3_1_1 length=0.038619 units=km 
New line.mt737951 phases=1 bus1=1739196B.3 bus2=2865993B.3 linecode=CAB102_3_1_1 length=0.038619 units=km 
New line.mt737958 phases=1 bus1=1739203B.3 bus2=2865965B.3 linecode=CAB102_3_1_1 length=0.038619 units=km 
New line.mt737965 phases=3 bus1=180320293.1.2.3 bus2=2865818B.1.2.3 linecode=CAB107_3_3_3 length=0.031032 units=km 
New line.mt737972 phases=3 bus1=1739217B.1.2.3 bus2=2865825B.1.2.3 linecode=CAB107_3_3_3 length=0.031999 units=km 
New line.mt737979 phases=3 bus1=1739224B.1.2.3 bus2=2865832B.1.2.3 linecode=CAB107_3_3_3 length=0.030068 units=km 
New line.mt737986 phases=3 bus1=1739238B.1.2.3 bus2=2866238B.1.2.3 linecode=CAB107_3_3_3 length=0.030789999999999998 units=km 
New line.mt737993 phases=3 bus1=1739245B.1.2.3 bus2=2866245B.1.2.3 linecode=CAB107_3_3_3 length=0.037344 units=km 
New line.mt738000 phases=3 bus1=1739252B.1.2.3 bus2=2866252B.1.2.3 linecode=CAB107_3_3_3 length=0.038308 units=km 
New line.mt738007 phases=3 bus1=1739259B.1.2.3 bus2=2866259B.1.2.3 linecode=CAB107_3_3_3 length=0.03612 units=km 
New line.mt738014 phases=1 bus1=1739266B.1 bus2=2874694B.1 linecode=CAB102_3_1_1 length=0.035153 units=km 
New line.mt738021 phases=3 bus1=180320296.1.2.3 bus2=2874659B.1.2.3 linecode=CAB107_3_3_3 length=0.031032 units=km 
New line.mt738028 phases=3 bus1=1739287B.1.2.3 bus2=2874652B.1.2.3 linecode=CAB107_3_3_3 length=0.031999 units=km 
New line.mt738035 phases=3 bus1=180320298.1.2.3 bus2=2875275B.1.2.3 linecode=CAB107_3_3_3 length=0.023757 units=km 
New line.mt738042 phases=3 bus1=180320298.1.2.3 bus2=158898349.1.2.3 linecode=CAB103_3_3_3 length=0.067861 units=km 
New line.mt738049 phases=3 bus1=1739308B.1.2.3 bus2=2875240B.1.2.3 linecode=CAB107_3_3_3 length=0.025948 units=km 
New line.mt738056 phases=3 bus1=1739315B.1.2.3 bus2=2875233B.1.2.3 linecode=CAB107_3_3_3 length=0.026670000000000003 units=km 
New line.mt738063 phases=1 bus1=180320294.1 bus2=1739357B.1 linecode=CAB102_3_1_1 length=0.034186999999999995 units=km 
New line.mt738070 phases=3 bus1=180320294.1.2.3 bus2=2866273B.1.2.3 linecode=CAB107_3_3_3 length=0.037089 units=km 
New line.mt738077 phases=1 bus1=1739357B.1 bus2=1739364B.1 linecode=CAB102_3_1_1 length=0.034186999999999995 units=km 
New line.mt738084 phases=1 bus1=1739364B.1 bus2=2874666B.1 linecode=CAB102_3_1_1 length=0.033938 units=km 
New line.mt738091 phases=3 bus1=1739371B.1.2.3 bus2=2866266B.1.2.3 linecode=CAB107_3_3_3 length=0.03612 units=km 
New line.mt738098 phases=3 bus1=1739378B.1.2.3 bus2=2875226B.1.2.3 linecode=CAB107_3_3_3 length=0.040241 units=km 
New line.mt738105 phases=3 bus1=180320299.1.2.3 bus2=2875219B.1.2.3 linecode=CAB107_3_3_3 length=0.040241 units=km 
New line.mt738112 phases=3 bus1=1739392B.1.2.3 bus2=2875191B.1.2.3 linecode=CAB107_3_3_3 length=0.038058999999999996 units=km 
New line.mt738119 phases=3 bus1=1739399B.1.2.3 bus2=180320300.1.2.3 linecode=CAB107_3_3_3 length=0.040241 units=km 
New line.mt738126 phases=3 bus1=1739406B.1.2.3 bus2=2875163B.1.2.3 linecode=CAB107_3_3_3 length=0.040241 units=km 
New line.mt738133 phases=3 bus1=1739413B.1.2.3 bus2=2875156B.1.2.3 linecode=CAB107_3_3_3 length=0.038058999999999996 units=km 
New line.mt738147 phases=3 bus1=180320301.1.2.3 bus2=2875149B.1.2.3 linecode=CAB107_3_3_3 length=0.06618399999999999 units=km 
New line.mt738903 phases=1 bus1=1740897B.1 bus2=2874701B.1 linecode=CAB102_3_1_1 length=0.038308 units=km 
New line.mt762129 phases=3 bus1=1785179B.1.2.3 bus2=1785186B.1.2.3 linecode=CAB102_3_3_3 length=0.036654000000000006 units=km 
New line.mt762136 phases=3 bus1=1785186B.1.2.3 bus2=1785193B.1.2.3 linecode=CAB102_3_3_3 length=0.03254 units=km 
New line.mt762143 phases=3 bus1=158899316.1.2.3 bus2=1785193B.1.2.3 linecode=CAB102_3_3_3 length=0.034694 units=km 
New line.mt762150 phases=3 bus1=1785207B.1.2.3 bus2=158899316.1.2.3 linecode=CAB102_3_3_3 length=0.033716 units=km 
New line.mt762157 phases=3 bus1=158898412.1.2.3 bus2=1362932B.1.2.3 linecode=CABA08_3_3_3 length=0.030577 units=km 
New line.mt762164 phases=3 bus1=158899315.1.2.3 bus2=1785207B.1.2.3 linecode=CAB102_3_3_3 length=0.010625 units=km 
New line.mt771922 phases=3 bus1=1804184B.1.2.3 bus2=158898466.1.2.3 linecode=CAB103_3_3_3 length=0.034463 units=km 
New line.mt771929 phases=3 bus1=158898465.1.2.3 bus2=1804184B.1.2.3 linecode=CAB103_3_3_3 length=0.030348 units=km 
...
