ULAU15/trafosMT_ULAU15.dss
New transformer.392718 phases=1 xhl=1.625 xht=1.625 xlt= 1.3 %r=1.9 windings=3 %loadloss=1.9 %noloadloss=0.6
~ wdg=1 bus=178639856.1 kv=7.96 kva=5 tap=1 conn=Wye
~ wdg=2 bus=1791899.1.4 kv=0.24 kva=5 tap=1 conn=wye
~ wdg=3 bus=1791899.4.2 kv=0.24 kva=5 tap=1 conn=wye
New Reactor.TF392718 phases=1 bus1=1791899.4 R=15 X=0 basefreq=60

New transformer.393453 phases=1 xhl=1.735 xht=1.735 xlt= 1.388 %r=1.8 windings=3 %loadloss=1.8 %noloadloss=0.45
~ wdg=1 bus=126410393.1 kv=7.96 kva=10 tap=1 conn=Wye
~ wdg=2 bus=1793369.1.4 kv=0.24 kva=10 tap=1 conn=wye
~ wdg=3 bus=1793369.4.2 kv=0.24 kva=10 tap=1 conn=wye
New Reactor.TF393453 phases=1 bus1=1793369.4 R=15 X=0 basefreq=60

New transformer.393887 phases=1 xhl=1.735 xht=1.735 xlt= 1.388 %r=1.8 windings=3 %loadloss=1.8 %noloadloss=0.45
~ wdg=1 bus=126410435.1 kv=7.96 kva=10 tap=1 conn=Wye
~ wdg=2 bus=1794237.1.4 kv=0.24 kva=10 tap=1 conn=wye
~ wdg=3 bus=1794237.4.2 kv=0.24 kva=10 tap=1 conn=wye
New Reactor.TF393887 phases=1 bus1=1794237.4 R=15 X=0 basefreq=60

New transformer.393915 phases=1 xhl=1.735 xht=1.735 xlt= 1.388 %r=1.8 windings=3 %loadloss=1.8 %noloadloss=0.45
~ wdg=1 bus=126410449.1 kv=7.96 kva=10 tap=1 conn=Wye
~ wdg=2 bus=1794293.1.4 kv=0.24 kva=10 tap=1 conn=wye
~ wdg=3 bus=1794293.4.2 kv=0.24 kva=10 tap=1 conn=wye
New Reactor.TF393915 phases=1 bus1=1794293.4 R=15 X=0 basefreq=60

New transformer.393768 phases=1 xhl=1.921 xht=1.921 xlt= 1.537 %r=1.6 windings=3 %loadloss=1.6 %noloadloss=0.4
~ wdg=1 bus=181955613.1 kv=7.96 kva=15 tap=1 conn=Wye
~ wdg=2 bus=1793999.1.4 kv=0.24 kva=15 tap=1 conn=wye
~ wdg=3 bus=1793999.4.2 kv=0.24 kva=15 tap=1 conn=wye
New Reactor.TF393768 phases=1 bus1=1793999.4 R=15 X=0 basefreq=60

New transformer.393761 phases=1 xhl=1.735 xht=1.735 xlt= 1.388 %r=1.8 windings=3 %loadloss=1.8 %noloadloss=0.45
~ wdg=1 bus=126410365.1 kv=7.96 kva=10 tap=1 conn=Wye
~ wdg=2 bus=1793985.1.4 kv=0.24 kva=10 tap=1 conn=wye
~ wdg=3 bus=1793985.4.2 kv=0.24 kva=10 tap=1 conn=wye
New Reactor.TF393761 phases=1 bus1=1793985.4 R=15 X=0 basefreq=60

New transformer.393957 phases=1 xhl=1.921 xht=1.921 xlt= 1.537 %r=1.6 windings=3 %loadloss=1.6 %noloadloss=0.4
~ wdg=1 bus=148731437.1 kv=7.96 kva=15 tap=1 conn=Wye
~ wdg=2 bus=1794377.1.4 kv=0.24 kva=15 tap=1 conn=wye
~ wdg=3 bus=1794377.4.2 kv=0.24 kva=15 tap=1 conn=wye
New Reactor.TF393957 phases=1 bus1=1794377.4 R=15 X=0 basefreq=60

New transformer.391899 phases=1 xhl=1.735 xht=1.735 xlt= 1.388 %r=1.8 windings=3 %loadloss=1.8 %noloadloss=0.45
~ wdg=1 bus=158898242.1 kv=7.96 kva=10 tap=1 conn=Wye
~ wdg=2 bus=1790261.1.4 kv=0.24 kva=10 tap=1 conn=wye
~ wdg=3 bus=1790261.4.2 kv=0.24 kva=10 tap=1 conn=wye
New Reactor.TF391899 phases=1 bus1=1790261.4 R=15 X=0 basefreq=60

New transformer.392991 phases=1 xhl=1.735 xht=1.735 xlt= 1.388 %r=1.8 windings=3 %loadloss=1.8 %noloadloss=0.45
~ wdg=1 bus=181086805.1 kv=7.96 kva=10 tap=1 conn=Wye
~ wdg=2 bus=1792445.1.4 kv=0.24 kva=10 tap=1 conn=wye
~ wdg=3 bus=1792445.4.2 kv=0.24 kva=10 tap=1 conn=wye
New Reactor.TF392991 phases=1 bus1=1792445.4 R=15 X=0 basefreq=60

New transformer.394909 phases=1 xhl=1.735 xht=1.735 xlt= 1.388 %r=1.8 windings=3 %loadloss=1.8 %noloadloss=0.45
~ wdg=1 bus=158897966.1 kv=7.96 kva=10 tap=1 conn=Wye
~ wdg=2 bus=1796638.1.4 kv=0.24 kva=10 tap=1 conn=wye
~ wdg=3 bus=1796638.4.2 kv=0.24 kva=10 tap=1 conn=wye
New Reactor.TF394909 phases=1 bus1=1796638.4 R=15 X=0 basefreq=60

New transformer.394034 phases=1 xhl=1.921 xht=1.921 xlt= 1.537 %r=1.6 windings=3 %loadloss=1.6 %noloadloss=0.4
~ wdg=1 bus=159901433.1 kv=7.96 kva=15 tap=1 conn=Wye
~ wdg=2 bus=1794531.1.4 kv=0.24 kva=15 tap=1 conn=wye
~ wdg=3 bus=1794531.4.2 kv=0.24 kva=15 tap=1 conn=wye
New Reactor.TF394034 phases=1 bus1=1794531.4 R=15 X=0 basefreq=60

New transformer.395119 phases=1 xhl=1.735 xht=1.735 xlt= 1.388 %r=1.8 windings=3 %loadloss=1.8 %noloadloss=0.45
~ wdg=1 bus=158897964.2 kv=7.96 kva=10 tap=1 conn=Wye
~ wdg=2 bus=1797828.1.4 kv=0.24 kva=10 tap=1 conn=wye
~ wdg=3 bus=1797828.4.2 kv=0.24 kva=10 tap=1 conn=wye
New Reactor.TF395119 phases=1 bus1=1797828.4 R=15 X=0 basefreq=60

New transformer.391598 phases=1 xhl=1.735 xht=1.735 xlt= 1.388 %r=1.8 windings=3 %loadloss=1.8 %noloadloss=0.45
~ wdg=1 bus=158898125.2 kv=7.96 kva=10 tap=1 conn=Wye
~ wdg=2 bus=1789659.1.4 kv=0.24 kva=10 tap=1 conn=wye
~ wdg=3 bus=1789659.4.2 kv=0.24 kva=10 tap=1 conn=wye
New Reactor.TF391598 phases=1 bus1=1789659.4 R=15 X=0 basefreq=60

New transformer.391969 phases=1 xhl=1.921 xht=1.921 xlt= 1.537 %r=1.6 windings=3 %loadloss=1.6 %noloadloss=0.4
~ wdg=1 bus=158898074.2 kv=7.96 kva=15 tap=1 conn=Wye
~ wdg=2 bus=1790401.1.4 kv=0.24 kva=15 tap=1 conn=wye
~ wdg=3 bus=1790401.4.2 kv=0.24 kva=15 tap=1 conn=wye
New Reactor.TF391969 phases=1 bus1=1790401.4 R=15 X=0 basefreq=60

New transformer.391682 phases=1 xhl=1.735 xht=1.735 xlt= 1.388 %r=1.8 windings=3 %loadloss=1.8 %noloadloss=0.45
~ wdg=1 bus=158898085.2 kv=7.96 kva=10 tap=1 conn=Wye
~ wdg=2 bus=1789827.1.4 kv=0.24 kva=10 tap=1 conn=wye
~ wdg=3 bus=1789827.4.2 kv=0.24 kva=10 tap=1 conn=wye
New Reactor.TF391682 phases=1 bus1=1789827.4 R=15 X=0 basefreq=60

New transformer.392501 phases=1 xhl=1.625 xht=1.625 xlt= 1.3 %r=1.9 windings=3 %loadloss=1.9 %noloadloss=0.6
~ wdg=1 bus=162791155.2 kv=7.96 kva=5 tap=1 conn=Wye
~ wdg=2 bus=1791465.1.4 kv=0.24 kva=5 tap=1 conn=wye
~ wdg=3 bus=1791465.4.2 kv=0.24 kva=5 tap=1 conn=wye
New Reactor.TF392501 phases=1 bus1=1791465.4 R=15 X=0 basefreq=60

New transformer.392823 phases=1 xhl=1.921 xht=1.921 xlt= 1.537 %r=1.6 windings=3 %loadloss=1.6 %noloadloss=0.4
~ wdg=1 bus=173703817.2 kv=7.96 kva=15 tap=1 conn=Wye
~ wdg=2 bus=1792109.1.4 kv=0.24 kva=15 tap=1 conn=wye
~ wdg=3 bus=1792109.4.2 kv=0.24 kva=15 tap=1 conn=wye
New Reactor.TF392823 phases=1 bus1=1792109.4 R=15 X=0 basefreq=60

New transformer.393348 phases=1 xhl=1.921 xht=1.921 xlt= 1.537 %r=1.6 windings=3 %loadloss=1.6 %noloadloss=0.4
~ wdg=1 bus=182127686.2 kv=7.96 kva=15 tap=1 conn=Wye
...