ULAU15/ssdBT_ULAU15.dss
New line.bt1523736 phases=3 bus1=1789659.1.2.4 bus2=1789666.1.2.4 length=0.0005 units=km linecode=BT307_BT307_7_2_1_3
New line.bt1523827 phases=3 bus1=1789827.1.2.4 bus2=1789834.1.2.4 length=0.0005 units=km linecode=BT307_BT307_7_2_1_3
New line.bt1523995 phases=3 bus1=1790149.1.2.4 bus2=1790156.1.2.4 length=0.0005 units=km linecode=BT307_BT307_7_2_1_3
New line.bt1524051 phases=3 bus1=1790261.1.2.4 bus2=1790268.1.2.4 length=0.0005 units=km linecode=BT307_BT307_7_2_1_3
New line.bt1524121 phases=3 bus1=1790401.1.2.4 bus2=1790408.1.2.4 length=0.0005 units=km linecode=BT307_BT307_7_2_1_3
New line.bt1524149 phases=3 bus1=1790457.1.2.4 bus2=1790464.1.2.4 length=0.0005 units=km linecode=BT307_BT307_7_2_1_3
New line.bt1524156 phases=3 bus1=1790471.1.2.4 bus2=1790478.1.2.4 length=0.0005 units=km linecode=BT307_BT307_7_2_1_3
New line.bt1524163 phases=3 bus1=1790485.1.2.4 bus2=1790492.1.2.4 length=0.0005 units=km linecode=BT307_BT307_7_2_1_3
New line.bt1524233 phases=3 bus1=1790625.1.2.4 bus2=1790632.1.2.4 length=0.0005 units=km linecode=BT307_BT307_7_2_1_3
New line.bt1524247 phases=3 bus1=1790653.1.2.4 bus2=1790660.1.2.4 length=0.0005 units=km linecode=BT307_BT307_7_2_1_3
New line.bt1524275 phases=3 bus1=1790709.1.2.4 bus2=1790716.1.2.4 length=0.0005 units=km linecode=BT307_BT307_7_2_1_3
New line.bt1524317 phases=3 bus1=1790793.1.2.4 bus2=1790800.1.2.4 length=0.0005 units=km linecode=BT307_BT307_7_2_1_3
New line.bt1524324 phases=3 bus1=1790807.1.2.4 bus2=1790814.1.2.4 length=0.0005 units=km linecode=BT307_BT307_7_2_1_3
New line.bt1524436 phases=4 bus1=1791017.1.2.3.4 bus2=1791024.1.2.3.4 length=0.0005 units=km linecode=BT307_BT307_7_3_1_4
New line.bt1524499 phases=3 bus1=1791143.1.2.4 bus2=1791150.1.2.4 length=0.0005 units=km linecode=BT307_BT307_7_2_1_3
New line.bt1524611 phases=4 bus1=1791353.1.2.3.4 bus2=1791360.1.2.3.4 length=0.0005 units=km linecode=BT309_BT309_7_3_1_4
New line.bt1524667 phases=3 bus1=1791465.1.2.4 bus2=1791472.1.2.4 length=0.0005 units=km linecode=BT307_BT307_7_2_1_3
New line.bt1524674 phases=4 bus1=1791479.1.2.3.4 bus2=1791486.1.2.3.4 length=0.0005 units=km linecode=BT307_BT307_7_3_1_4
New line.bt1524744 phases=3 bus1=1791591.1.2.4 bus2=1791598.1.2.4 length=0.0005 units=km linecode=BT307_BT307_7_2_1_3
New line.bt1524758 phases=3 bus1=1791619.1.2.4 bus2=1791626.1.2.4 length=0.0005 units=km linecode=BT508_BT508_7_2_1_3
New line.bt1524807 phases=3 bus1=1791717.1.2.4 bus2=1791724.1.2.4 length=0.0005 units=km linecode=BT307_BT307_7_2_1_3
New line.bt1524884 phases=3 bus1=1791871.1.2.4 bus2=1791878.1.2.4 length=0.0005 units=km linecode=BT508_BT508_7_2_1_3
New line.bt1524905 phases=3 bus1=1791899.1.2.4 bus2=1791906.1.2.4 length=0.0005 units=km linecode=BT307_BT307_7_2_1_3
New line.bt1524912 phases=3 bus1=1791913.1.2.4 bus2=1791920.1.2.4 length=0.0005 units=km linecode=BT307_BT307_7_2_1_3
New line.bt1524940 phases=3 bus1=1791969.1.2.4 bus2=1791976.1.2.4 length=0.0005 units=km linecode=BT307_BT307_7_2_1_3
New line.bt1524961 phases=3 bus1=1792011.1.2.4 bus2=1792018.1.2.4 length=0.0005 units=km linecode=BT307_BT307_7_2_1_3
New line.bt1525010 phases=3 bus1=1792109.1.2.4 bus2=1792116.1.2.4 length=0.0005 units=km linecode=BT307_BT307_7_2_1_3
New line.bt1525017 phases=3 bus1=1792123.1.2.4 bus2=1792130.1.2.4 length=0.0005 units=km linecode=BT307_BT307_7_2_1_3
New line.bt1525052 phases=3 bus1=1792193.1.2.4 bus2=1792200.1.2.4 length=0.0005 units=km linecode=BT307_BT307_7_2_1_3
New line.bt1525059 phases=3 bus1=1792207.1.2.4 bus2=1792214.1.2.4 length=0.0005 units=km linecode=BT307_BT307_7_2_1_3
New line.bt1525066 phases=3 bus1=1792221.1.2.4 bus2=1792228.1.2.4 length=0.0005 units=km linecode=BT307_BT307_7_2_1_3
New line.bt1525115 phases=3 bus1=1792319.1.2.4 bus2=1792326.1.2.4 length=0.0005 units=km linecode=BT307_BT307_7_2_1_3
New line.bt1525150 phases=3 bus1=1792389.1.2.4 bus2=1792396.1.2.4 length=0.0005 units=km linecode=BT307_BT307_7_2_1_3
New line.bt1525164 phases=3 bus1=1792417.1.2.4 bus2=1792424.1.2.4 length=0.0005 units=km linecode=BT307_BT307_7_2_1_3
New line.bt1525178 phases=3 bus1=1792445.1.2.4 bus2=1792452.1.2.4 length=0.0005 units=km linecode=BT307_BT307_7_2_1_3
New line.bt1525192 phases=3 bus1=1792473.1.2.4 bus2=1792480.1.2.4 length=0.0005 units=km linecode=BT307_BT307_7_2_1_3
New line.bt1525255 phases=3 bus1=1792599.1.2.4 bus2=1792606.1.2.4 length=0.0005 units=km linecode=BT521_BT521_7_2_1_3
New line.bt1525367 phases=3 bus1=1792823.1.2.4 bus2=1792830.1.2.4 length=0.0005 units=km linecode=BT307_BT307_7_2_1_3
New line.bt1525388 phases=3 bus1=1792851.1.2.4 bus2=1792858.1.2.4 length=0.0005 units=km linecode=BT307_BT307_7_2_1_3
New line.bt1525395 phases=3 bus1=1792865.1.2.4 bus2=1792872.1.2.4 length=0.0005 units=km linecode=BT307_BT307_7_2_1_3
New line.bt1525451 phases=3 bus1=1792977.1.2.4 bus2=1792984.1.2.4 length=0.0005 units=km linecode=BT307_BT307_7_2_1_3
New line.bt1525493 phases=3 bus1=1793061.1.2.4 bus2=1793068.1.2.4 length=0.0005 units=km linecode=BT307_BT307_7_2_1_3
...